<?xml version="1.0" encoding="UTF-8"?>

<!-- generated on 2023-04-08 16:04:32 by Eclipse SUMO netedit Version 1.15.0
<configuration xmlns:xsi="http://www.w3.org/2001/XMLSchema-instance" xsi:noNamespaceSchemaLocation="http://sumo.dlr.de/xsd/netconvertConfiguration.xsd">

    <input>
        <sumo-net-file value="C:\Users\Paulinho\Desktop\Master-Thesis\nodes\no_areinho.net.xml"/>
    </input>

    <output>
        <output-file value="C:\Users\Paulinho\Desktop\Master-Thesis\nodes\no_areinho.net.xml"/>
        <output.street-names value="true"/>
    </output>

    <processing>
        <geometry.min-radius.fix.railways value="false"/>
        <geometry.max-grade.fix value="false"/>
        <offset.disable-normalization value="true"/>
        <lefthand value="0"/>
    </processing>

    <junctions>
        <no-turnarounds value="true"/>
        <junctions.corner-detail value="5"/>
        <junctions.limit-turn-speed value="5.50"/>
        <rectangular-lane-cut value="0"/>
    </junctions>

    <pedestrian>
        <walkingareas value="0"/>
    </pedestrian>

    <netedit>
        <additional-files value="C:\Users\Paulinho\Desktop\Master-Thesis\nodes\no_areinho_poi.xml"/>
    </netedit>

</configuration>
-->

<net version="1.9" junctionCornerDetail="5" limitTurnSpeed="5.50" xmlns:xsi="http://www.w3.org/2001/XMLSchema-instance" xsi:noNamespaceSchemaLocation="http://sumo.dlr.de/xsd/net_file.xsd">

    <location netOffset="-527942.18,-4549621.05" convBoundary="6474.58,3760.69,7640.34,5347.07" origBoundary="-8.675949,41.071545,-8.491512,41.183683" projParameter="+proj=utm +zone=29 +ellps=WGS84 +datum=WGS84 +units=m +no_defs"/>

    <type id="highway.bridleway" priority="1" numLanes="1" speed="2.78" allow="pedestrian" oneway="1" width="2.00"/>
    <type id="highway.bus_guideway" priority="1" numLanes="1" speed="27.78" allow="bus" oneway="1"/>
    <type id="highway.cycleway" priority="1" numLanes="1" speed="5.56" allow="bicycle" oneway="0" width="1.00"/>
    <type id="highway.footway" priority="1" numLanes="1" speed="2.78" allow="pedestrian" oneway="1" width="2.00"/>
    <type id="highway.ford" priority="1" numLanes="1" speed="2.78" allow="army" oneway="0"/>
    <type id="highway.living_street" priority="2" numLanes="1" speed="2.78" disallow="tram rail_urban rail rail_electric rail_fast ship" oneway="0"/>
    <type id="highway.motorway" priority="14" numLanes="2" speed="39.44" allow="private emergency authority army vip passenger hov taxi bus coach delivery truck trailer motorcycle evehicle custom1 custom2" oneway="1"/>
    <type id="highway.motorway_link" priority="9" numLanes="1" speed="22.22" allow="private emergency authority army vip passenger hov taxi bus coach delivery truck trailer motorcycle evehicle custom1 custom2" oneway="1"/>
    <type id="highway.path" priority="1" numLanes="1" speed="5.56" allow="pedestrian bicycle" oneway="0" width="2.00"/>
    <type id="highway.pedestrian" priority="1" numLanes="1" speed="2.78" allow="pedestrian" oneway="1" width="2.00"/>
    <type id="highway.primary" priority="12" numLanes="2" speed="27.78" disallow="tram rail_urban rail rail_electric rail_fast ship" oneway="0"/>
    <type id="highway.primary_link" priority="7" numLanes="1" speed="22.22" disallow="tram rail_urban rail rail_electric rail_fast ship" oneway="0"/>
    <type id="highway.raceway" priority="15" numLanes="2" speed="83.33" allow="vip" oneway="0"/>
    <type id="highway.residential" priority="3" numLanes="1" speed="13.89" disallow="tram rail_urban rail rail_electric rail_fast ship" oneway="0"/>
    <type id="highway.secondary" priority="11" numLanes="1" speed="27.78" disallow="tram rail_urban rail rail_electric rail_fast ship" oneway="0"/>
    <type id="highway.secondary_link" priority="6" numLanes="1" speed="22.22" disallow="tram rail_urban rail rail_electric rail_fast ship" oneway="0"/>
    <type id="highway.service" priority="1" numLanes="1" speed="5.56" allow="pedestrian delivery bicycle" oneway="0"/>
    <type id="highway.stairs" priority="1" numLanes="1" speed="1.39" allow="pedestrian" oneway="1" width="2.00"/>
    <type id="highway.step" priority="1" numLanes="1" speed="1.39" allow="pedestrian" oneway="1" width="2.00"/>
    <type id="highway.steps" priority="1" numLanes="1" speed="1.39" allow="pedestrian" oneway="1" width="2.00"/>
    <type id="highway.tertiary" priority="10" numLanes="1" speed="22.22" disallow="tram rail_urban rail rail_electric rail_fast ship" oneway="0"/>
    <type id="highway.tertiary_link" priority="5" numLanes="1" speed="22.22" disallow="tram rail_urban rail rail_electric rail_fast ship" oneway="0"/>
    <type id="highway.track" priority="1" numLanes="1" speed="5.56" allow="pedestrian motorcycle moped bicycle" oneway="0"/>
    <type id="highway.trunk" priority="13" numLanes="2" speed="27.78" disallow="pedestrian bicycle tram rail_urban rail rail_electric rail_fast ship" oneway="0"/>
    <type id="highway.trunk_link" priority="8" numLanes="1" speed="22.22" disallow="pedestrian bicycle tram rail_urban rail rail_electric rail_fast ship" oneway="0"/>
    <type id="highway.unclassified" priority="4" numLanes="1" speed="13.89" disallow="tram rail_urban rail rail_electric rail_fast ship" oneway="0"/>
    <type id="highway.unsurfaced" priority="1" numLanes="1" speed="8.33" disallow="tram rail_urban rail rail_electric rail_fast ship" oneway="0"/>
    <type id="railway.highspeed" priority="21" numLanes="1" speed="69.44" allow="rail_fast" oneway="1"/>
    <type id="railway.light_rail" priority="19" numLanes="1" speed="27.78" allow="rail_urban" oneway="1"/>
    <type id="railway.preserved" priority="16" numLanes="1" speed="27.78" allow="rail" oneway="1"/>
    <type id="railway.rail" priority="20" numLanes="1" speed="44.44" allow="rail" oneway="1"/>
    <type id="railway.subway" priority="18" numLanes="1" speed="27.78" allow="rail_urban" oneway="1"/>
    <type id="railway.tram" priority="17" numLanes="1" speed="13.89" allow="tram" oneway="1"/>

    <edge id=":10019270299_0" function="internal">
        <lane id=":10019270299_0_0" index="0" allow="private emergency authority army vip passenger hov taxi bus coach delivery truck trailer motorcycle evehicle custom1 custom2" speed="25.00" length="0.30" shape="7522.27,4202.80 7522.08,4203.04"/>
        <lane id=":10019270299_0_1" index="1" allow="private emergency authority army vip passenger hov taxi bus coach delivery truck trailer motorcycle evehicle custom1 custom2" speed="25.00" length="0.30" shape="7519.78,4200.78 7519.59,4201.02"/>
    </edge>
    <edge id=":1528762191_0" function="internal">
        <lane id=":1528762191_0_0" index="0" allow="private emergency authority army vip passenger hov taxi bus coach delivery truck trailer motorcycle evehicle custom1 custom2" speed="30.83" length="7.41" shape="7057.95,4214.67 7056.33,4213.27 7055.20,4212.34 7054.01,4211.47 7052.25,4210.25"/>
        <lane id=":1528762191_0_1" index="1" allow="private emergency authority army vip passenger hov taxi bus coach delivery truck trailer motorcycle evehicle custom1 custom2" speed="30.83" length="7.41" shape="7060.06,4212.27 7058.36,4210.79 7057.17,4209.81 7055.92,4208.90 7054.07,4207.61"/>
    </edge>
    <edge id=":3693344629_0" function="internal">
        <lane id=":3693344629_0_0" index="0" allow="private emergency authority army vip passenger hov taxi bus coach delivery truck trailer motorcycle evehicle custom1 custom2" speed="22.22" length="3.91" shape="7261.58,4614.85 7261.55,4618.86"/>
        <lane id=":3693344629_0_1" index="1" allow="private emergency authority army vip passenger hov taxi bus coach delivery truck trailer motorcycle evehicle custom1 custom2" speed="22.22" length="3.91" shape="7258.38,4614.92 7258.36,4618.73"/>
    </edge>
    <edge id=":3693344629_2" function="internal">
        <lane id=":3693344629_2_0" index="0" allow="private emergency authority army vip passenger hov taxi bus coach delivery truck trailer motorcycle evehicle custom1 custom2" speed="25.00" length="3.48" shape="7255.04,4614.89 7255.15,4615.98 7255.20,4616.74 7255.20,4617.49 7255.16,4618.59"/>
        <lane id=":3693344629_2_1" index="1" allow="private emergency authority army vip passenger hov taxi bus coach delivery truck trailer motorcycle evehicle custom1 custom2" speed="25.00" length="3.48" shape="7251.85,4615.23 7251.95,4616.19 7252.00,4616.84 7252.00,4617.50 7251.96,4618.46"/>
    </edge>
    <edge id=":3693344670_0" function="internal">
        <lane id=":3693344670_0_0" index="0" allow="private emergency authority army vip passenger hov taxi bus coach delivery truck trailer motorcycle evehicle custom1 custom2" speed="20.83" length="15.16" shape="7148.87,4204.57 7153.65,4205.28 7157.32,4205.39 7160.54,4205.24 7163.97,4205.16"/>
    </edge>
    <edge id=":3693344670_1" function="internal">
        <lane id=":3693344670_1_0" index="0" allow="private emergency authority army vip passenger hov taxi bus coach delivery truck trailer motorcycle evehicle custom1 custom2" speed="19.44" length="15.57" shape="7148.24,4207.70 7152.77,4208.31 7155.93,4208.25 7159.11,4208.13 7163.68,4208.54"/>
        <lane id=":3693344670_1_1" index="1" allow="private emergency authority army vip passenger hov taxi bus coach delivery truck trailer motorcycle evehicle custom1 custom2" speed="19.44" length="15.57" shape="7147.60,4210.84 7152.18,4211.46 7155.37,4211.40 7158.58,4211.28 7163.19,4211.70"/>
    </edge>
    <edge id=":3693344703_0" function="internal">
        <lane id=":3693344703_0_0" index="0" allow="private emergency authority army vip passenger hov taxi bus coach delivery truck trailer motorcycle evehicle custom1 custom2" speed="25.00" length="7.71" shape="7503.75,4225.57 7502.63,4227.74 7502.48,4229.59 7502.28,4231.38 7500.96,4233.38"/>
        <lane id=":3693344703_0_1" index="1" allow="private emergency authority army vip passenger hov taxi bus coach delivery truck trailer motorcycle evehicle custom1 custom2" speed="25.00" length="7.71" shape="7503.75,4225.57 7502.34,4227.29 7501.35,4228.44 7500.29,4229.54 7498.71,4231.10"/>
        <lane id=":3693344703_0_2" index="2" allow="private emergency authority army vip passenger hov taxi bus coach delivery truck trailer motorcycle evehicle custom1 custom2" speed="25.00" length="7.71" shape="7501.27,4223.55 7499.93,4225.19 7498.98,4226.29 7497.97,4227.33 7496.47,4228.82"/>
    </edge>
    <edge id=":3693344847_0" function="internal">
        <lane id=":3693344847_0_0" index="0" allow="private emergency authority army vip passenger hov taxi bus coach delivery truck trailer motorcycle evehicle custom1 custom2" speed="22.22" length="3.21" shape="7231.34,4635.53 7228.14,4635.19"/>
        <lane id=":3693344847_0_1" index="1" allow="private emergency authority army vip passenger hov taxi bus coach delivery truck trailer motorcycle evehicle custom1 custom2" speed="22.22" length="3.21" shape="7234.54,4635.63 7231.34,4635.26"/>
        <lane id=":3693344847_0_2" index="2" allow="private emergency authority army vip passenger hov taxi bus coach delivery truck trailer motorcycle evehicle custom1 custom2" speed="22.22" length="3.21" shape="7237.73,4635.73 7234.54,4635.34"/>
        <lane id=":3693344847_0_3" index="3" allow="private emergency authority army vip passenger hov taxi bus coach delivery truck trailer motorcycle evehicle custom1 custom2" speed="22.22" length="3.21" shape="7240.93,4635.84 7237.74,4635.41"/>
    </edge>
    <edge id=":3693344875_0" function="internal">
        <lane id=":3693344875_0_0" index="0" allow="private emergency authority army vip passenger hov taxi bus coach delivery truck trailer motorcycle evehicle custom1 custom2" speed="22.22" length="0.27" shape="7224.57,4489.26 7224.53,4489.03"/>
        <lane id=":3693344875_0_1" index="1" allow="private emergency authority army vip passenger hov taxi bus coach delivery truck trailer motorcycle evehicle custom1 custom2" speed="22.22" length="0.27" shape="7227.73,4488.77 7227.68,4488.46"/>
    </edge>
    <edge id=":3693344877_0" function="internal">
        <lane id=":3693344877_0_0" index="0" allow="private emergency authority army vip passenger hov taxi bus coach delivery truck trailer motorcycle evehicle custom1 custom2" speed="20.84" length="3.02" shape="7475.94,4258.08 7473.75,4260.15"/>
    </edge>
    <edge id=":3693344877_1" function="internal">
        <lane id=":3693344877_1_0" index="0" allow="private emergency authority army vip passenger hov taxi bus coach delivery truck trailer motorcycle evehicle custom1 custom2" speed="25.00" length="2.79" shape="7473.69,4255.80 7471.58,4257.75"/>
        <lane id=":3693344877_1_1" index="1" allow="private emergency authority army vip passenger hov taxi bus coach delivery truck trailer motorcycle evehicle custom1 custom2" speed="25.00" length="2.79" shape="7471.44,4253.53 7469.44,4255.37"/>
    </edge>
    <edge id=":3693344927_0" function="internal">
        <lane id=":3693344927_0_0" index="0" allow="private emergency authority army vip passenger hov taxi bus coach delivery truck trailer motorcycle evehicle custom1 custom2" speed="16.66" length="3.47" shape="7077.65,4236.17 7075.02,4233.89"/>
    </edge>
    <edge id=":3693344927_1" function="internal">
        <lane id=":3693344927_1_0" index="0" allow="private emergency authority army vip passenger hov taxi bus coach delivery truck trailer motorcycle evehicle custom1 custom2" speed="22.22" length="3.44" shape="7080.05,4233.70 7079.14,4233.10 7078.53,4232.67 7077.95,4232.20 7077.13,4231.49"/>
        <lane id=":3693344927_1_1" index="1" allow="private emergency authority army vip passenger hov taxi bus coach delivery truck trailer motorcycle evehicle custom1 custom2" speed="22.22" length="3.44" shape="7081.80,4231.03 7081.00,4230.50 7080.47,4230.12 7079.96,4229.71 7079.24,4229.08"/>
    </edge>
    <edge id=":3693344944_0" function="internal">
        <lane id=":3693344944_0_0" index="0" allow="private emergency authority army vip passenger hov taxi bus coach delivery truck trailer motorcycle evehicle custom1 custom2" speed="27.77" length="3.14" shape="7458.25,4242.99 7458.96,4242.39 7459.44,4241.97 7459.89,4241.52 7460.55,4240.86"/>
    </edge>
    <edge id=":3693344944_1" function="internal">
        <lane id=":3693344944_1_0" index="0" allow="private emergency authority army vip passenger hov taxi bus coach delivery truck trailer motorcycle evehicle custom1 custom2" speed="36.38" length="3.04" shape="7460.69,4245.30 7462.83,4243.11"/>
        <lane id=":3693344944_1_1" index="1" allow="private emergency authority army vip passenger hov taxi bus coach delivery truck trailer motorcycle evehicle custom1 custom2" speed="36.38" length="3.04" shape="7462.99,4247.53 7465.10,4245.36"/>
    </edge>
    <edge id=":3693344965_0" function="internal">
        <lane id=":3693344965_0_0" index="0" allow="private emergency authority army vip passenger hov taxi bus coach delivery truck trailer motorcycle evehicle custom1 custom2" speed="22.22" length="3.72" shape="7229.26,4587.15 7229.42,4583.37"/>
        <lane id=":3693344965_0_1" index="1" allow="private emergency authority army vip passenger hov taxi bus coach delivery truck trailer motorcycle evehicle custom1 custom2" speed="22.22" length="3.72" shape="7232.46,4587.22 7232.61,4583.56"/>
    </edge>
    <edge id=":3693344965_2" function="internal">
        <lane id=":3693344965_2_0" index="0" allow="private emergency authority army vip passenger hov taxi bus coach delivery truck trailer motorcycle evehicle custom1 custom2" speed="22.22" length="3.80" shape="7235.66,4587.29 7235.69,4586.17 7235.74,4585.40 7235.85,4584.63 7236.06,4583.53"/>
        <lane id=":3693344965_2_1" index="1" allow="private emergency authority army vip passenger hov taxi bus coach delivery truck trailer motorcycle evehicle custom1 custom2" speed="22.22" length="3.26" shape="7238.86,4587.37 7238.88,4586.40 7238.93,4585.74 7239.03,4585.08 7239.20,4584.13"/>
    </edge>
    <edge id=":3693344978_0" function="internal">
        <lane id=":3693344978_0_0" index="0" allow="private emergency authority army vip passenger hov taxi bus coach delivery truck trailer motorcycle evehicle custom1 custom2" speed="25.00" length="0.25" shape="7396.43,4317.75 7396.27,4317.88"/>
        <lane id=":3693344978_0_1" index="1" allow="private emergency authority army vip passenger hov taxi bus coach delivery truck trailer motorcycle evehicle custom1 custom2" speed="25.00" length="0.25" shape="7394.45,4315.23 7394.22,4315.42"/>
    </edge>
    <edge id=":3693345030_0" function="internal">
        <lane id=":3693345030_0_0" index="0" allow="private emergency authority army vip passenger hov taxi bus coach delivery truck trailer motorcycle evehicle custom1 custom2" speed="19.44" length="7.89" shape="7102.26,4196.50 7104.48,4196.87 7106.06,4196.72 7107.66,4196.51 7109.92,4196.71"/>
        <lane id=":3693345030_0_1" index="1" allow="private emergency authority army vip passenger hov taxi bus coach delivery truck trailer motorcycle evehicle custom1 custom2" speed="19.44" length="7.89" shape="7102.26,4196.50 7104.40,4197.36 7105.75,4198.29 7107.11,4199.15 7109.29,4199.85"/>
        <lane id=":3693345030_0_2" index="2" allow="private emergency authority army vip passenger hov taxi bus coach delivery truck trailer motorcycle evehicle custom1 custom2" speed="19.44" length="7.89" shape="7101.38,4199.58 7103.60,4200.46 7104.99,4201.40 7106.40,4202.27 7108.66,4202.99"/>
    </edge>
    <edge id=":3693345034_0" function="internal">
        <lane id=":3693345034_0_0" index="0" allow="private emergency authority army vip passenger hov taxi bus coach delivery truck trailer motorcycle evehicle custom1 custom2" speed="13.89" length="0.21" shape="7394.21,4330.62 7394.17,4330.67 7394.14,4330.70 7394.12,4330.73 7394.08,4330.79"/>
    </edge>
    <edge id=":3693345090_0" function="internal">
        <lane id=":3693345090_0_0" index="0" allow="private emergency authority army vip passenger hov taxi bus coach delivery truck trailer motorcycle evehicle custom1 custom2" speed="30.83" length="0.31" shape="7249.41,4509.47 7249.44,4509.33 7249.46,4509.23 7249.49,4509.14 7249.53,4509.01"/>
        <lane id=":3693345090_0_1" index="1" allow="private emergency authority army vip passenger hov taxi bus coach delivery truck trailer motorcycle evehicle custom1 custom2" speed="30.83" length="0.31" shape="7252.55,4510.10 7252.56,4510.06 7252.56,4510.03 7252.57,4510.00 7252.59,4509.95"/>
    </edge>
    <edge id=":3693345111_0" function="internal">
        <lane id=":3693345111_0_0" index="0" allow="private emergency authority army vip passenger hov taxi bus coach delivery truck trailer motorcycle evehicle custom1 custom2" speed="23.61" length="3.21" shape="7260.85,4635.64 7257.65,4635.75"/>
        <lane id=":3693345111_0_1" index="1" allow="private emergency authority army vip passenger hov taxi bus coach delivery truck trailer motorcycle evehicle custom1 custom2" speed="23.61" length="3.21" shape="7257.65,4635.50 7254.45,4635.66"/>
        <lane id=":3693345111_0_2" index="2" allow="private emergency authority army vip passenger hov taxi bus coach delivery truck trailer motorcycle evehicle custom1 custom2" speed="23.61" length="3.21" shape="7254.46,4635.37 7251.26,4635.57"/>
        <lane id=":3693345111_0_3" index="3" allow="private emergency authority army vip passenger hov taxi bus coach delivery truck trailer motorcycle evehicle custom1 custom2" speed="23.61" length="3.21" shape="7251.26,4635.24 7248.06,4635.49"/>
    </edge>
    <edge id=":8501737384_0" function="internal">
        <lane id=":8501737384_0_0" index="0" allow="private emergency authority army vip passenger hov taxi bus coach delivery truck trailer motorcycle evehicle custom1 custom2" speed="22.22" length="0.30" shape="7257.12,4655.39 7257.11,4655.69"/>
        <lane id=":8501737384_0_1" index="1" allow="private emergency authority army vip passenger hov taxi bus coach delivery truck trailer motorcycle evehicle custom1 custom2" speed="22.22" length="0.30" shape="7253.92,4655.30 7253.92,4655.60"/>
        <lane id=":8501737384_0_2" index="2" allow="private emergency authority army vip passenger hov taxi bus coach delivery truck trailer motorcycle evehicle custom1 custom2" speed="22.22" length="0.30" shape="7250.72,4655.22 7250.72,4655.52"/>
        <lane id=":8501737384_0_3" index="3" allow="private emergency authority army vip passenger hov taxi bus coach delivery truck trailer motorcycle evehicle custom1 custom2" speed="22.22" length="0.30" shape="7247.53,4655.13 7247.52,4655.43"/>
    </edge>
    <edge id=":9727456912_0" function="internal">
        <lane id=":9727456912_0_0" index="0" allow="private emergency authority army vip passenger hov taxi bus coach delivery truck trailer motorcycle evehicle custom1 custom2" speed="22.22" length="0.10" shape="7069.43,4186.60 7069.34,4186.57"/>
        <lane id=":9727456912_0_1" index="1" allow="private emergency authority army vip passenger hov taxi bus coach delivery truck trailer motorcycle evehicle custom1 custom2" speed="22.22" length="0.10" shape="7068.29,4189.60 7068.38,4189.63"/>
    </edge>

    <edge id="1058622673" from="9727456912" to="3693345030" name="Via de Cintura Interna" priority="9" type="highway.motorway_link" spreadType="center" shape="7068.86,4188.10 7089.09,4194.42 7105.52,4199.09">
        <lane id="1058622673_0" index="0" allow="private emergency authority army vip passenger hov taxi bus coach delivery truck trailer motorcycle evehicle custom1 custom2" speed="19.44" length="34.43" shape="7069.34,4186.57 7089.55,4192.89 7102.26,4196.50">
            <param key="origId" value="1058622673"/>
        </lane>
        <lane id="1058622673_1" index="1" allow="private emergency authority army vip passenger hov taxi bus coach delivery truck trailer motorcycle evehicle custom1 custom2" speed="19.44" length="34.43" shape="7068.38,4189.63 7088.63,4195.95 7101.38,4199.58">
            <param key="origId" value="1058622673"/>
        </lane>
    </edge>
    <edge id="1058622674" from="3693345030" to="3693344670" name="Via de Cintura Interna" priority="9" type="highway.motorway_link" spreadType="center">
        <lane id="1058622674_0" index="0" allow="private emergency authority army vip passenger hov taxi bus coach delivery truck trailer motorcycle evehicle custom1 custom2" speed="19.44" length="39.73" shape="7109.92,4196.71 7148.87,4204.57">
            <param key="origId" value="1058622674"/>
        </lane>
        <lane id="1058622674_1" index="1" allow="private emergency authority army vip passenger hov taxi bus coach delivery truck trailer motorcycle evehicle custom1 custom2" speed="19.44" length="39.73" shape="7109.29,4199.85 7148.24,4207.70">
            <param key="origId" value="1058622674"/>
        </lane>
        <lane id="1058622674_2" index="2" allow="private emergency authority army vip passenger hov taxi bus coach delivery truck trailer motorcycle evehicle custom1 custom2" speed="19.44" length="39.73" shape="7108.66,4202.99 7147.60,4210.84">
            <param key="origId" value="1058622674"/>
        </lane>
    </edge>
    <edge id="1093951608" from="10019270299" to="3693344703" priority="14" type="highway.motorway" spreadType="center">
        <lane id="1093951608_0" index="0" allow="private emergency authority army vip passenger hov taxi bus coach delivery truck trailer motorcycle evehicle custom1 custom2" speed="25.00" length="29.05" shape="7522.08,4203.04 7503.75,4225.57" changeLeft="authority" changeRight="authority">
            <param key="origId" value="1093951608"/>
        </lane>
        <lane id="1093951608_1" index="1" allow="private emergency authority army vip passenger hov taxi bus coach delivery truck trailer motorcycle evehicle custom1 custom2" speed="25.00" length="29.05" shape="7519.59,4201.02 7501.27,4223.55" changeLeft="authority" changeRight="authority">
            <param key="origId" value="1093951608"/>
        </lane>
        <param key="ref" value="A 20;IP 1"/>
    </edge>
    <edge id="13530808" from="3693344965" to="3693344875" priority="9" type="highway.motorway_link" spreadType="center" shape="7230.90,4585.41 7232.90,4551.32 7232.26,4533.11 7229.20,4508.68 7226.13,4488.88">
        <lane id="13530808_0" index="0" allow="private emergency authority army vip passenger hov taxi bus coach delivery truck trailer motorcycle evehicle custom1 custom2" speed="22.22" length="94.94" shape="7229.42,4583.37 7231.30,4551.30 7230.66,4533.24 7227.62,4508.90 7224.57,4489.26">
            <param key="origId" value="13530808"/>
        </lane>
        <lane id="13530808_1" index="1" allow="private emergency authority army vip passenger hov taxi bus coach delivery truck trailer motorcycle evehicle custom1 custom2" speed="22.22" length="94.94" shape="7232.61,4583.56 7234.50,4551.34 7233.86,4532.98 7230.78,4508.46 7227.73,4488.77">
            <param key="origId" value="13530808"/>
        </lane>
    </edge>
    <edge id="139449001" from="3693345034" to="3693344927" name="Nó do Areinho" priority="9" type="highway.motorway_link" spreadType="center" shape="7394.14,4330.70 7390.07,4336.73 7380.51,4356.42 7376.96,4373.11 7376.75,4390.04 7380.60,4432.22 7378.70,4453.06 7372.52,4472.93 7361.61,4491.72 7342.40,4511.42 7326.13,4521.38 7313.96,4526.07 7300.27,4529.41 7283.77,4531.03 7268.92,4530.01 7250.71,4524.65 7237.67,4518.71 7220.63,4506.74 7208.52,4494.35 7200.94,4483.15 7189.34,4458.37 7114.35,4276.14 7100.49,4255.67 7076.29,4235.01">
        <lane id="139449001_0" index="0" allow="private emergency authority army vip passenger hov taxi bus coach delivery truck trailer motorcycle evehicle custom1 custom2" speed="11.11" length="638.22" shape="7394.08,4330.79 7390.07,4336.73 7380.51,4356.42 7376.96,4373.11 7376.75,4390.04 7380.60,4432.22 7378.70,4453.06 7372.52,4472.93 7361.61,4491.72 7342.40,4511.42 7326.13,4521.38 7313.96,4526.07 7300.27,4529.41 7283.77,4531.03 7268.92,4530.01 7250.71,4524.65 7237.67,4518.71 7220.63,4506.74 7208.52,4494.35 7200.94,4483.15 7189.34,4458.37 7114.35,4276.14 7100.49,4255.67 7077.65,4236.17">
            <param key="origId" value="139449001"/>
        </lane>
    </edge>
    <edge id="139455413" from="1528762191" to="139455413-AddedOffRampNode" name="Via de Cintura Interna" priority="14" type="highway.motorway" spreadType="center" shape="7056.25,4211.06 6961.22,4145.61 6809.97,4042.56 6737.05,3994.06 6655.59,3939.85 6593.79,3897.91 6501.13,3835.53 6474.58,3814.61">
        <lane id="139455413_0" index="0" allow="private emergency authority army vip passenger hov taxi bus coach delivery truck trailer motorcycle evehicle custom1 custom2" speed="39.44" length="700.27" shape="7052.25,4210.25 6960.32,4146.93 6809.08,4043.89 6736.16,3995.39 6654.70,3941.18 6592.89,3899.24 6500.19,3836.82 6473.59,3815.87">
            <param key="origId" value="139455413 95374600 95374589 95374596 95984958"/>
        </lane>
        <lane id="139455413_1" index="1" allow="private emergency authority army vip passenger hov taxi bus coach delivery truck trailer motorcycle evehicle custom1 custom2" speed="39.44" length="700.27" shape="7054.07,4207.61 6962.12,4144.29 6810.86,4041.23 6737.94,3992.73 6656.48,3938.52 6594.69,3896.58 6502.07,3834.24 6475.57,3813.35">
            <param key="origId" value="139455413 95374600 95374589 95374596 95984958"/>
        </lane>
        <param key="ref" value="A 44"/>
    </edge>
    <edge id="140054045" from="319327528" to="3693344847" name="Ponte do Freixo" priority="14" type="highway.motorway" spreadType="center" shape="7204.87,5345.64 7215.07,5158.38 7232.11,4763.04 7236.14,4635.52">
        <lane id="140054045_0" index="0" allow="private emergency authority army vip passenger hov taxi bus coach delivery truck trailer motorcycle evehicle custom1 custom2" speed="22.22" length="710.66" shape="7200.08,5345.38 7210.28,5158.15 7227.31,4762.86 7231.34,4635.53">
            <param key="origId" value="140054045 365315019 390157770"/>
        </lane>
        <lane id="140054045_1" index="1" allow="private emergency authority army vip passenger hov taxi bus coach delivery truck trailer motorcycle evehicle custom1 custom2" speed="22.22" length="710.66" shape="7203.27,5345.55 7213.47,5158.30 7230.51,4762.98 7234.54,4635.63">
            <param key="origId" value="140054045 365315019 390157770"/>
        </lane>
        <lane id="140054045_2" index="2" allow="private emergency authority army vip passenger hov taxi bus coach delivery truck trailer motorcycle evehicle custom1 custom2" speed="22.22" length="710.66" shape="7206.47,5345.73 7216.67,5158.46 7233.71,4763.10 7237.73,4635.73">
            <param key="origId" value="140054045 365315019 390157770"/>
        </lane>
        <lane id="140054045_3" index="3" allow="private emergency authority army vip passenger hov taxi bus coach delivery truck trailer motorcycle evehicle custom1 custom2" speed="22.22" length="710.66" shape="7209.66,5345.90 7219.86,5158.61 7236.91,4763.22 7240.93,4635.84">
            <param key="origId" value="140054045 365315019 390157770"/>
        </lane>
        <param key="ref" value="IP1;A20"/>
    </edge>
    <edge id="29036549" from="3693344944" to="3693344994" priority="14" type="highway.motorway" spreadType="center" shape="7461.81,4244.14 7488.47,4217.17 7509.87,4190.44 7521.28,4176.22 7552.49,4127.37 7573.64,4082.16 7591.47,4026.75 7599.26,3990.81 7602.84,3965.14 7606.68,3936.90 7611.40,3907.10 7615.70,3864.76 7618.88,3835.47">
        <lane id="29036549_0" index="0" allow="private emergency authority army vip passenger hov taxi bus coach delivery truck trailer motorcycle evehicle custom1 custom2" speed="33.33" length="448.42" acceleration="1" shape="7460.55,4240.86 7486.08,4215.04 7507.37,4188.44 7518.68,4174.35 7549.68,4125.82 7570.66,4080.99 7588.38,4025.92 7596.11,3990.25 7599.67,3964.70 7603.51,3936.43 7608.23,3906.69 7612.52,3864.43 7615.70,3835.12">
            <param key="origId" value="29036549 390157771 915252790"/>
        </lane>