<?xml version="1.0" encoding="UTF-8"?>

<!-- generated on 2023-03-16 15:32:27 by Eclipse SUMO netedit Version 1.15.0
<configuration xmlns:xsi="http://www.w3.org/2001/XMLSchema-instance" xsi:noNamespaceSchemaLocation="http://sumo.dlr.de/xsd/netconvertConfiguration.xsd">

    <input>
        <sumo-net-file value="C:\Users\Paulinho\Desktop\Master-Thesis\sumo\vci.net.xml.gz"/>
    </input>

    <output>
        <output-file value="C:\Users\Paulinho\Desktop\Master-Thesis\nodes\no_avenida_boavista.net.xml"/>
        <output.street-names value="true"/>
    </output>

    <processing>
        <geometry.min-radius.fix.railways value="false"/>
        <geometry.max-grade.fix value="false"/>
        <offset.disable-normalization value="true"/>
        <lefthand value="0"/>
    </processing>

    <junctions>
        <no-turnarounds value="true"/>
        <junctions.corner-detail value="5"/>
        <junctions.limit-turn-speed value="5.50"/>
        <rectangular-lane-cut value="0"/>
    </junctions>

    <pedestrian>
        <walkingareas value="0"/>
    </pedestrian>

    <netedit>
        <additional-files value="C:\Users\Paulinho\Desktop\Master-Thesis\nodes\no_avenida_boavista_poi.xml"/>
    </netedit>

</configuration>
-->

<net version="1.9" junctionCornerDetail="5" limitTurnSpeed="5.50" xmlns:xsi="http://www.w3.org/2001/XMLSchema-instance" xsi:noNamespaceSchemaLocation="http://sumo.dlr.de/xsd/net_file.xsd">

    <location netOffset="-524914.43,-4544541.91" convBoundary="4363.64,11488.08,4852.21,12541.75" origBoundary="-8.702913,41.051318,-8.236192,41.279522" projParameter="+proj=utm +zone=29 +ellps=WGS84 +datum=WGS84 +units=m +no_defs"/>

    <type id="highway.bridleway" priority="1" numLanes="1" speed="2.78" allow="pedestrian" oneway="1" width="2.00"/>
    <type id="highway.bus_guideway" priority="1" numLanes="1" speed="27.78" allow="bus" oneway="1"/>
    <type id="highway.cycleway" priority="1" numLanes="1" speed="5.56" allow="bicycle" oneway="0" width="1.00"/>
    <type id="highway.footway" priority="1" numLanes="1" speed="2.78" allow="pedestrian" oneway="1" width="2.00"/>
    <type id="highway.ford" priority="1" numLanes="1" speed="2.78" allow="army" oneway="0"/>
    <type id="highway.living_street" priority="2" numLanes="1" speed="2.78" disallow="tram rail_urban rail rail_electric rail_fast ship" oneway="0"/>
    <type id="highway.motorway" priority="14" numLanes="2" speed="39.44" allow="private emergency authority army vip passenger hov taxi bus coach delivery truck trailer motorcycle evehicle custom1 custom2" oneway="1"/>
    <type id="highway.motorway_link" priority="9" numLanes="1" speed="22.22" allow="private emergency authority army vip passenger hov taxi bus coach delivery truck trailer motorcycle evehicle custom1 custom2" oneway="1"/>
    <type id="highway.path" priority="1" numLanes="1" speed="5.56" allow="pedestrian bicycle" oneway="0" width="2.00"/>
    <type id="highway.pedestrian" priority="1" numLanes="1" speed="2.78" allow="pedestrian" oneway="1" width="2.00"/>
    <type id="highway.primary" priority="12" numLanes="2" speed="27.78" disallow="tram rail_urban rail rail_electric rail_fast ship" oneway="0"/>
    <type id="highway.primary_link" priority="7" numLanes="1" speed="22.22" disallow="tram rail_urban rail rail_electric rail_fast ship" oneway="0"/>
    <type id="highway.raceway" priority="15" numLanes="2" speed="83.33" allow="vip" oneway="0"/>
    <type id="highway.residential" priority="3" numLanes="1" speed="13.89" disallow="tram rail_urban rail rail_electric rail_fast ship" oneway="0"/>
    <type id="highway.secondary" priority="11" numLanes="1" speed="27.78" disallow="tram rail_urban rail rail_electric rail_fast ship" oneway="0"/>
    <type id="highway.secondary_link" priority="6" numLanes="1" speed="22.22" disallow="tram rail_urban rail rail_electric rail_fast ship" oneway="0"/>
    <type id="highway.service" priority="1" numLanes="1" speed="5.56" allow="pedestrian delivery bicycle" oneway="0"/>
    <type id="highway.stairs" priority="1" numLanes="1" speed="1.39" allow="pedestrian" oneway="1" width="2.00"/>
    <type id="highway.step" priority="1" numLanes="1" speed="1.39" allow="pedestrian" oneway="1" width="2.00"/>
    <type id="highway.steps" priority="1" numLanes="1" speed="1.39" allow="pedestrian" oneway="1" width="2.00"/>
    <type id="highway.tertiary" priority="10" numLanes="1" speed="22.22" disallow="tram rail_urban rail rail_electric rail_fast ship" oneway="0"/>
    <type id="highway.tertiary_link" priority="5" numLanes="1" speed="22.22" disallow="tram rail_urban rail rail_electric rail_fast ship" oneway="0"/>
    <type id="highway.track" priority="1" numLanes="1" speed="5.56" allow="pedestrian motorcycle moped bicycle" oneway="0"/>
    <type id="highway.trunk" priority="13" numLanes="2" speed="27.78" disallow="pedestrian bicycle tram rail_urban rail rail_electric rail_fast ship" oneway="0"/>
    <type id="highway.trunk_link" priority="8" numLanes="1" speed="22.22" disallow="pedestrian bicycle tram rail_urban rail rail_electric rail_fast ship" oneway="0"/>
    <type id="highway.unclassified" priority="4" numLanes="1" speed="13.89" disallow="tram rail_urban rail rail_electric rail_fast ship" oneway="0"/>
    <type id="highway.unsurfaced" priority="1" numLanes="1" speed="8.33" disallow="tram rail_urban rail rail_electric rail_fast ship" oneway="0"/>
    <type id="railway.highspeed" priority="21" numLanes="1" speed="69.44" allow="rail_fast" oneway="1"/>
    <type id="railway.light_rail" priority="19" numLanes="1" speed="27.78" allow="rail_urban" oneway="1"/>
    <type id="railway.preserved" priority="16" numLanes="1" speed="27.78" allow="rail" oneway="1"/>
    <type id="railway.rail" priority="20" numLanes="1" speed="44.44" allow="rail" oneway="1"/>
    <type id="railway.subway" priority="18" numLanes="1" speed="27.78" allow="rail_urban" oneway="1"/>
    <type id="railway.tram" priority="17" numLanes="1" speed="13.89" allow="tram" oneway="1"/>

    <edge id=":110801277#3-AddedOnRampNode_0" function="internal">
        <lane id=":110801277#3-AddedOnRampNode_0_0" index="0" disallow="tram rail_urban rail rail_electric rail_fast ship" speed="27.78" length="0.34" shape="4539.48,12159.93 4539.16,12160.01"/>
        <lane id=":110801277#3-AddedOnRampNode_0_1" index="1" disallow="tram rail_urban rail rail_electric rail_fast ship" speed="27.78" length="0.34" shape="4540.17,12163.06 4539.84,12163.13"/>
        <lane id=":110801277#3-AddedOnRampNode_0_2" index="2" disallow="tram rail_urban rail rail_electric rail_fast ship" speed="27.78" length="0.34" shape="4540.86,12166.19 4540.53,12166.26"/>
    </edge>
    <edge id=":126411674_0" function="internal">
        <lane id=":126411674_0_0" index="0" allow="private emergency authority army vip passenger hov taxi bus coach delivery truck trailer motorcycle evehicle custom1 custom2" speed="22.22" length="2.17" shape="4612.24,11995.37 4611.86,11995.89 4611.60,11996.25 4611.32,11996.59 4610.90,11997.08"/>
    </edge>
    <edge id=":126411674_1" function="internal">
        <lane id=":126411674_1_0" index="0" allow="private emergency authority army vip passenger hov taxi bus coach delivery truck trailer motorcycle evehicle custom1 custom2" speed="22.22" length="2.48" shape="4614.70,11997.16 4614.32,11997.80 4614.06,11998.23 4613.77,11998.64 4613.29,11999.20"/>
    </edge>
    <edge id=":126411675_0" function="internal">
        <lane id=":126411675_0_0" index="0" allow="private emergency authority army vip passenger hov taxi bus coach delivery truck trailer motorcycle evehicle custom1 custom2" speed="22.22" length="3.63" shape="4668.42,11925.58 4666.39,11928.59"/>
    </edge>
    <edge id=":126411675_1" function="internal">
        <lane id=":126411675_1_0" index="0" allow="private emergency authority army vip passenger hov taxi bus coach delivery truck trailer motorcycle evehicle custom1 custom2" speed="22.22" length="3.32" shape="4665.68,11923.92 4665.17,11924.76 4664.78,11925.32 4664.35,11925.84 4663.68,11926.56"/>
    </edge>
    <edge id=":1264279315_0" function="internal">
        <lane id=":1264279315_0_0" index="0" allow="private emergency authority army vip passenger hov taxi bus coach delivery truck trailer motorcycle evehicle custom1 custom2" speed="25.00" length="2.87" shape="4539.35,12159.96 4540.18,12159.78 4540.74,12159.62 4541.30,12159.44 4542.10,12159.15"/>
    </edge>
    <edge id=":1264279315_1" function="internal">
        <lane id=":1264279315_1_0" index="0" disallow="tram rail_urban rail rail_electric rail_fast ship" speed="27.78" length="2.80" shape="4540.04,12163.09 4542.78,12162.50"/>
        <lane id=":1264279315_1_1" index="1" disallow="tram rail_urban rail rail_electric rail_fast ship" speed="27.78" length="2.80" shape="4540.72,12166.21 4543.46,12165.62"/>
    </edge>
    <edge id=":1264279438_0" function="internal">
        <lane id=":1264279438_0_0" index="0" allow="private emergency authority army vip passenger hov taxi bus coach delivery truck trailer motorcycle evehicle custom1 custom2" speed="7.59" length="4.03" shape="4415.14,12187.77 4416.29,12187.50 4417.06,12187.18 4417.70,12186.65 4418.47,12185.75"/>
    </edge>
    <edge id=":1264279438_1" function="internal">
        <lane id=":1264279438_1_0" index="0" disallow="tram rail_urban rail rail_electric rail_fast ship" speed="27.78" length="4.28" shape="4415.79,12190.90 4419.91,12189.96"/>
        <lane id=":1264279438_1_1" index="1" disallow="tram rail_urban rail rail_electric rail_fast ship" speed="27.78" length="4.28" shape="4416.44,12194.03 4420.67,12193.07"/>
    </edge>
    <edge id=":1264279478_0" function="internal">
        <lane id=":1264279478_0_0" index="0" allow="private emergency authority army vip passenger hov taxi bus coach delivery truck trailer motorcycle evehicle custom1 custom2" speed="25.00" length="3.32" shape="4440.15,12181.31 4441.14,12181.30 4441.81,12181.26 4442.48,12181.15 4443.44,12180.95"/>
    </edge>
    <edge id=":1264279478_1" function="internal">
        <lane id=":1264279478_1_0" index="0" disallow="tram rail_urban rail rail_electric rail_fast ship" speed="27.78" length="3.35" shape="4440.81,12184.83 4444.12,12184.07"/>
        <lane id=":1264279478_1_1" index="1" disallow="tram rail_urban rail rail_electric rail_fast ship" speed="27.78" length="3.35" shape="4441.58,12187.94 4444.80,12187.20"/>
    </edge>
    <edge id=":126542182_0" function="internal">
        <lane id=":126542182_0_0" index="0" allow="private emergency authority army vip passenger hov taxi bus coach delivery truck trailer motorcycle evehicle custom1 custom2" speed="22.22" length="3.15" shape="4444.99,12009.38 4446.69,12006.73"/>
    </edge>
    <edge id=":126542182_1" function="internal">
        <lane id=":126542182_1_0" index="0" allow="private emergency authority army vip passenger hov taxi bus coach delivery truck trailer motorcycle evehicle custom1 custom2" speed="22.22" length="3.20" shape="4447.67,12011.13 4448.19,12010.33 4448.56,12009.80 4448.97,12009.29 4449.58,12008.57"/>
    </edge>
    <edge id=":126542188_0" function="internal">
        <lane id=":126542188_0_0" index="0" allow="private emergency authority army vip passenger hov taxi bus coach delivery truck trailer motorcycle evehicle custom1 custom2" speed="22.22" length="2.73" shape="4589.25,11930.29 4591.80,11929.32"/>
    </edge>
    <edge id=":126542188_1" function="internal">
        <lane id=":126542188_1_0" index="0" allow="private emergency authority army vip passenger hov taxi bus coach delivery truck trailer motorcycle evehicle custom1 custom2" speed="22.22" length="2.90" shape="4590.34,11933.32 4593.04,11932.27"/>
    </edge>
    <edge id=":126543210_0" function="internal">
        <lane id=":126543210_0_0" index="0" allow="private emergency authority army vip passenger hov taxi bus coach delivery truck trailer motorcycle evehicle custom1 custom2" speed="22.22" length="3.33" shape="4524.51,12052.52 4524.60,12051.53 4524.62,12050.86 4524.58,12050.18 4524.47,12049.20"/>
    </edge>
    <edge id=":126543210_1" function="internal">
        <lane id=":126543210_1_0" index="0" allow="private emergency authority army vip passenger hov taxi bus coach delivery truck trailer motorcycle evehicle custom1 custom2" speed="22.22" length="3.25" shape="4527.70,12052.82 4528.11,12049.59"/>
    </edge>
    <edge id=":126544301_0" function="internal">
        <lane id=":126544301_0_0" index="0" allow="private emergency authority army vip passenger hov taxi bus coach delivery truck trailer motorcycle evehicle custom1 custom2" speed="12.48" length="8.99" shape="4501.29,11831.02 4500.52,11833.33 4500.51,11835.03 4500.93,11836.79 4501.44,11839.27"/>
        <lane id=":126544301_0_1" index="1" allow="private emergency authority army vip passenger hov taxi bus coach delivery truck trailer motorcycle evehicle custom1 custom2" speed="13.19" length="8.99" shape="4501.29,11831.02 4499.93,11833.52 4498.82,11835.25 4498.20,11837.05 4498.28,11839.74"/>
    </edge>
    <edge id=":126544301_2" function="internal">
        <lane id=":126544301_2_0" index="0" disallow="tram rail_urban rail rail_electric rail_fast ship" speed="3.65" length="1.44" shape="4501.29,11831.02 4500.07,11831.79"/>
    </edge>
    <edge id=":126544301_4" function="internal">
        <lane id=":126544301_4_0" index="0" disallow="tram rail_urban rail rail_electric rail_fast ship" speed="3.65" length="3.23" shape="4500.07,11831.79 4499.18,11831.83 4498.61,11831.13 4498.37,11829.71"/>
    </edge>
    <edge id=":126544301_3" function="internal">
        <lane id=":126544301_3_0" index="0" allow="private emergency authority army vip passenger hov taxi bus coach delivery truck trailer motorcycle evehicle custom1 custom2" speed="25.00" length="10.81" shape="4493.41,11839.31 4498.37,11829.71"/>
    </edge>
    <edge id=":126544304_0" function="internal">
        <lane id=":126544304_0_0" index="0" allow="private emergency authority army vip passenger hov taxi bus coach delivery truck trailer motorcycle evehicle custom1 custom2" speed="22.22" length="3.17" shape="4497.63,11864.49 4497.47,11865.42 4497.37,11866.06 4497.31,11866.70 4497.25,11867.64"/>
    </edge>
    <edge id=":126544304_1" function="internal">
        <lane id=":126544304_1_0" index="0" allow="private emergency authority army vip passenger hov taxi bus coach delivery truck trailer motorcycle evehicle custom1 custom2" speed="22.22" length="3.11" shape="4494.47,11863.94 4493.92,11867.01"/>
    </edge>
    <edge id=":126547500_0" function="internal">
        <lane id=":126547500_0_0" index="0" allow="private emergency authority army vip passenger hov taxi bus coach delivery truck trailer motorcycle evehicle custom1 custom2" speed="22.22" length="2.89" shape="4438.70,12046.77 4437.89,12049.55"/>
    </edge>
    <edge id=":126547500_1" function="internal">
        <lane id=":126547500_1_0" index="0" allow="private emergency authority army vip passenger hov taxi bus coach delivery truck trailer motorcycle evehicle custom1 custom2" speed="22.22" length="2.68" shape="4441.73,12047.76 4441.00,12050.34"/>
    </edge>
    <edge id=":13703402-AddedOffRampNode_0" function="internal">
        <lane id=":13703402-AddedOffRampNode_0_0" index="0" allow="private emergency authority army vip passenger hov taxi bus coach delivery truck trailer motorcycle evehicle custom1 custom2" speed="22.22" length="8.40" shape="4718.92,11836.50 4718.01,11838.84 4718.11,11840.73 4718.20,11842.62 4717.29,11844.96"/>
        <lane id=":13703402-AddedOffRampNode_0_1" index="1" allow="private emergency authority army vip passenger hov taxi bus coach delivery truck trailer motorcycle evehicle custom1 custom2" speed="22.22" length="8.40" shape="4718.92,11836.50 4714.60,11843.23"/>
    </edge>
    <edge id=":13712337-AddedOffRampNode_0" function="internal">
        <lane id=":13712337-AddedOffRampNode_0_0" index="0" allow="private emergency authority army vip passenger hov taxi bus coach delivery truck trailer motorcycle evehicle custom1 custom2" speed="22.22" length="8.40" shape="4420.12,12108.59 4419.93,12106.08 4419.02,12104.42 4418.12,12102.76 4417.92,12100.26"/>
        <lane id=":13712337-AddedOffRampNode_0_1" index="1" allow="private emergency authority army vip passenger hov taxi bus coach delivery truck trailer motorcycle evehicle custom1 custom2" speed="22.22" length="8.40" shape="4420.12,12108.59 4421.10,12100.65"/>
    </edge>
    <edge id=":13712770#1-AddedOnRampNode_0" function="internal">
        <lane id=":13712770#1-AddedOnRampNode_0_0" index="0" allow="private emergency authority army vip passenger hov taxi bus coach delivery truck trailer motorcycle evehicle custom1 custom2" speed="22.22" length="8.00" shape="4424.06,12142.80 4424.98,12150.75"/>
    </edge>
    <edge id=":13713756-AddedOnRampNode_0" function="internal">
        <lane id=":13713756-AddedOnRampNode_0_0" index="0" allow="private emergency authority army vip passenger hov taxi bus coach delivery truck trailer motorcycle evehicle custom1 custom2" speed="22.22" length="7.99" shape="4658.03,11866.94 4659.43,11865.03 4660.48,11863.80 4661.63,11862.64 4663.30,11860.95"/>
    </edge>
    <edge id=":1725588010_0" function="internal">
        <lane id=":1725588010_0_0" index="0" allow="private emergency authority army vip passenger hov taxi bus coach delivery truck trailer motorcycle evehicle custom1 custom2" speed="11.71" length="3.64" shape="4672.93,12130.13 4673.98,12130.33 4674.72,12130.40 4675.46,12130.32 4676.52,12130.11"/>
    </edge>
    <edge id=":1725588010_1" function="internal">
        <lane id=":1725588010_1_0" index="0" disallow="tram rail_urban rail rail_electric rail_fast ship" speed="27.78" length="3.67" shape="4673.61,12134.01 4677.19,12133.24"/>
        <lane id=":1725588010_1_1" index="1" disallow="tram rail_urban rail rail_electric rail_fast ship" speed="27.78" length="3.67" shape="4674.27,12137.14 4677.87,12136.36"/>
    </edge>
    <edge id=":26016437_0" function="internal">
        <lane id=":26016437_0_0" index="0" allow="private emergency authority army vip passenger hov taxi bus coach delivery truck trailer motorcycle evehicle custom1 custom2" speed="22.22" length="8.10" shape="4498.83,12189.91 4498.31,12187.26 4496.83,12185.61 4495.44,12183.97 4495.17,12181.36"/>
        <lane id=":26016437_0_1" index="1" allow="private emergency authority army vip passenger hov taxi bus coach delivery truck trailer motorcycle evehicle custom1 custom2" speed="22.22" length="8.10" shape="4498.83,12189.91 4498.79,12187.54 4498.43,12185.91 4498.14,12184.29 4498.31,12181.94"/>
        <lane id=":26016437_0_2" index="2" allow="private emergency authority army vip passenger hov taxi bus coach delivery truck trailer motorcycle evehicle custom1 custom2" speed="22.22" length="8.10" shape="4498.83,12189.91 4499.29,12187.65 4500.00,12186.20 4500.79,12184.76 4501.46,12182.53"/>
        <lane id=":26016437_0_3" index="3" allow="private emergency authority army vip passenger hov taxi bus coach delivery truck trailer motorcycle evehicle custom1 custom2" speed="22.22" length="8.10" shape="4502.02,12190.19 4502.47,12188.02 4503.18,12186.64 4503.96,12185.26 4504.61,12183.12"/>
        <lane id=":26016437_0_4" index="4" allow="private emergency authority army vip passenger hov taxi bus coach delivery truck trailer motorcycle evehicle custom1 custom2" speed="22.22" length="8.10" shape="4505.21,12190.47 4505.65,12188.39 4506.35,12187.07 4507.12,12185.75 4507.75,12183.71"/>
    </edge>
    <edge id=":26016438_0" function="internal">
        <lane id=":26016438_0_0" index="0" allow="private emergency authority army vip passenger hov taxi bus coach delivery truck trailer motorcycle evehicle custom1 custom2" speed="22.22" length="7.77" shape="4541.47,12097.87 4540.81,12099.92 4540.76,12101.45 4540.78,12103.00 4540.33,12105.14"/>
        <lane id=":26016438_0_1" index="1" allow="private emergency authority army vip passenger hov taxi bus coach delivery truck trailer motorcycle evehicle custom1 custom2" speed="22.22" length="7.77" shape="4538.56,12096.53 4537.86,12098.68 4537.78,12100.28 4537.78,12101.90 4537.30,12104.14"/>
        <lane id=":26016438_0_2" index="2" allow="private emergency authority army vip passenger hov taxi bus coach delivery truck trailer motorcycle evehicle custom1 custom2" speed="22.22" length="7.77" shape="4535.65,12095.20 4534.90,12097.44 4534.80,12099.10 4534.77,12100.79 4534.26,12103.13"/>
    </edge>
    <edge id=":26016441_0" function="internal">
        <lane id=":26016441_0_0" index="0" allow="private emergency authority army vip passenger hov taxi bus coach delivery truck trailer motorcycle evehicle custom1 custom2" speed="22.22" length="3.13" shape="4672.26,11848.34 4673.94,11845.70"/>
        <lane id=":26016441_0_1" index="1" allow="private emergency authority army vip passenger hov taxi bus coach delivery truck trailer motorcycle evehicle custom1 custom2" speed="22.22" length="3.13" shape="4674.96,11850.07 4676.64,11847.43"/>
        <lane id=":26016441_0_2" index="2" allow="private emergency authority army vip passenger hov taxi bus coach delivery truck trailer motorcycle evehicle custom1 custom2" speed="22.22" length="3.13" shape="4677.66,11851.79 4679.33,11849.15"/>
    </edge>
    <edge id=":26016441_3" function="internal">
        <lane id=":26016441_3_0" index="0" allow="private emergency authority army vip passenger hov taxi bus coach delivery truck trailer motorcycle evehicle custom1 custom2" speed="22.22" length="3.18" shape="4669.98,11846.88 4670.28,11845.98 4670.50,11845.37 4670.76,11844.78 4671.25,11843.98"/>
    </edge>
    <edge id=":4695525092_0" function="internal">
        <lane id=":4695525092_0_0" index="0" allow="private emergency authority army vip passenger hov taxi bus coach delivery truck trailer motorcycle evehicle custom1 custom2" speed="22.22" length="12.00" shape="4592.99,12021.79 4590.54,12024.25 4588.79,12025.89 4587.22,12027.66 4585.28,12030.51"/>
        <lane id=":4695525092_0_1" index="1" allow="private emergency authority army vip passenger hov taxi bus coach delivery truck trailer motorcycle evehicle custom1 custom2" speed="22.22" length="12.00" shape="4590.65,12019.60 4588.07,12022.20 4586.25,12023.94 4584.60,12025.81 4582.56,12028.82"/>
    </edge>
    <edge id=":4695525092_2" function="internal">
        <lane id=":4695525092_2_0" index="0" allow="private emergency authority army vip passenger hov taxi bus coach delivery truck trailer motorcycle evehicle custom1 custom2" speed="22.22" length="12.68" shape="4587.92,12017.48 4585.69,12020.47 4583.85,12022.29 4582.03,12024.11 4579.84,12027.13"/>
        <lane id=":4695525092_2_1" index="1" allow="private emergency authority army vip passenger hov taxi bus coach delivery truck trailer motorcycle evehicle custom1 custom2" speed="22.22" length="12.68" shape="4585.23,12015.75 4582.99,12018.75 4581.14,12020.58 4579.32,12022.41 4577.12,12025.45"/>
        <lane id=":4695525092_2_2" index="2" allow="private emergency authority army vip passenger hov taxi bus coach delivery truck trailer motorcycle evehicle custom1 custom2" speed="22.22" length="12.68" shape="4582.54,12014.02 4580.29,12017.03 4578.44,12018.87 4576.60,12020.71 4574.40,12023.76"/>
    </edge>
    <edge id=":4723135797_0" function="internal">
        <lane id=":4723135797_0_0" index="0" allow="private emergency authority army vip passenger hov taxi bus coach delivery truck trailer motorcycle evehicle custom1 custom2" speed="22.22" length="0.29" shape="4548.60,12044.52 4548.79,12044.19"/>
        <lane id=":4723135797_0_1" index="1" allow="private emergency authority army vip passenger hov taxi bus coach delivery truck trailer motorcycle evehicle custom1 custom2" speed="22.22" length="0.29" shape="4551.41,12046.05 4551.55,12045.79"/>
        <lane id=":4723135797_0_2" index="2" allow="private emergency authority army vip passenger hov taxi bus coach delivery truck trailer motorcycle evehicle custom1 custom2" speed="22.22" length="0.29" shape="4554.22,12047.58 4554.32,12047.40"/>
    </edge>
    <edge id=":4758581105_0" function="internal">
        <lane id=":4758581105_0_0" index="0" allow="private emergency authority army vip passenger hov taxi bus coach delivery truck trailer motorcycle evehicle custom1 custom2" speed="22.22" length="13.06" shape="4483.70,11865.53 4488.07,11853.23"/>
    </edge>
    <edge id=":4758581105_1" function="internal">
        <lane id=":4758581105_1_0" index="0" allow="private emergency authority army vip passenger hov taxi bus coach delivery truck trailer motorcycle evehicle custom1 custom2" speed="22.22" length="13.26" shape="4487.18,11866.39 4487.17,11862.90 4487.11,11859.72 4487.31,11856.59 4488.07,11853.23"/>
    </edge>
    <edge id=":784545891_0" function="internal">
        <lane id=":784545891_0_0" index="0" allow="private emergency authority army vip passenger hov taxi bus coach delivery truck trailer motorcycle evehicle custom1 custom2" speed="22.22" length="13.88" shape="4514.96,12103.66 4518.60,12090.36"/>
        <lane id=":784545891_0_1" index="1" allow="private emergency authority army vip passenger hov taxi bus coach delivery truck trailer motorcycle evehicle custom1 custom2" speed="22.22" length="13.88" shape="4517.99,12104.67 4521.69,12091.21"/>
    </edge>
    <edge id=":784545891_2" function="internal">
        <lane id=":784545891_2_0" index="0" allow="private emergency authority army vip passenger hov taxi bus coach delivery truck trailer motorcycle evehicle custom1 custom2" speed="22.22" length="20.94" shape="4521.03,12105.68 4522.90,12099.68 4524.09,12095.53 4525.45,12091.46 4527.85,12085.66"/>
        <lane id=":784545891_2_1" index="1" allow="private emergency authority army vip passenger hov taxi bus coach delivery truck trailer motorcycle evehicle custom1 custom2" speed="22.22" length="20.94" shape="4524.07,12106.69 4525.92,12100.75 4527.09,12096.65 4528.44,12092.62 4530.80,12086.89"/>
        <lane id=":784545891_2_2" index="2" allow="private emergency authority army vip passenger hov taxi bus coach delivery truck trailer motorcycle evehicle custom1 custom2" speed="22.22" length="20.94" shape="4527.10,12107.70 4528.93,12101.83 4530.09,12097.78 4531.42,12093.79 4533.76,12088.12"/>
    </edge>

    <edge id="-316967086" from="3231579979" to="126544301" name="Rua de Grijó" priority="11" type="highway.secondary" shape="4561.36,11697.36 4534.40,11754.47 4527.63,11768.48 4497.62,11835.29">
        <lane id="-316967086_0" index="0" disallow="tram rail_urban rail rail_electric rail_fast ship" speed="27.78" length="146.53" shape="4562.81,11698.04 4535.84,11755.16 4529.08,11769.16 4501.29,11831.02">
            <param key="origId" value="316967086 314026522 13712830"/>
        </lane>
    </edge>
    <edge id="110801277#0" from="9376306390" to="1264279438" name="Avenida da Boavista" priority="12" type="highway.primary" spreadType="center" shape="4363.64,12201.68 4411.16,12191.86 4417.82,12190.48">
        <lane id="110801277#0_0" index="0" disallow="tram rail_urban rail rail_electric rail_fast ship" speed="27.78" length="53.25" shape="4362.99,12198.55 4410.51,12188.73 4415.14,12187.77">
            <param key="origId" value="110801277"/>
        </lane>
        <lane id="110801277#0_1" index="1" disallow="tram rail_urban rail rail_electric rail_fast ship" speed="27.78" length="53.25" shape="4363.64,12201.68 4411.16,12191.86 4415.79,12190.90">
            <param key="origId" value="110801277"/>
        </lane>
        <lane id="110801277#0_2" index="2" disallow="tram rail_urban rail rail_electric rail_fast ship" speed="27.78" length="53.25" shape="4364.29,12204.81 4411.81,12194.99 4416.44,12194.03">
            <param key="origId" value="110801277"/>
        </lane>
        <param key="origFrom" value="9376306390"/>
    </edge>
    <edge id="110801277#2" from="1264279438" to="1264279478" name="Avenida da Boavista" priority="12" type="highway.primary" spreadType="center" shape="4418.14,12192.04 4428.94,12189.39 4442.82,12185.99">
        <lane id="110801277#2_0" index="0" disallow="tram rail_urban rail rail_electric rail_fast ship" speed="27.78" length="21.52" shape="4419.91,12189.96 4428.56,12187.84 4440.81,12184.83">
            <param key="origId" value="110801277"/>
        </lane>
        <lane id="110801277#2_1" index="1" disallow="tram rail_urban rail rail_electric rail_fast ship" speed="27.78" length="21.52" shape="4420.67,12193.07 4429.32,12190.94 4441.58,12187.94">
            <param key="origId" value="110801277"/>
        </lane>
    </edge>
    <edge id="110801277#3" from="110801277#3-AddedOnRampNode" to="1264279315" name="Avenida da Boavista" priority="12" type="highway.primary" spreadType="center" shape="4540.17,12163.06 4541.22,12162.83">
        <lane id="110801277#3_0" index="0" disallow="tram rail_urban rail rail_electric rail_fast ship" speed="27.78" length="0.20" shape="4539.16,12160.01 4539.35,12159.96">
            <param key="origId" value="110801277 110801268"/>
        </lane>
        <lane id="110801277#3_1" index="1" disallow="tram rail_urban rail rail_electric rail_fast ship" speed="27.78" length="0.20" shape="4539.84,12163.13 4540.04,12163.09">
            <param key="origId" value="110801277 110801268"/>
        </lane>
        <lane id="110801277#3_2" index="2" disallow="tram rail_urban rail rail_electric rail_fast ship" speed="27.78" length="0.20" shape="4540.53,12166.26 4540.72,12166.21">
            <param key="origId" value="110801277 110801268"/>
        </lane>
    </edge>
    <edge id="110801277#3-AddedOnRampEdge" from="1264279478" to="110801277#3-AddedOnRampNode" name="Avenida da Boavista" priority="12" type="highway.primary" spreadType="center" shape="4442.48,12184.43 4472.46,12177.90 4540.17,12163.06">