<?xml version="1.0" encoding="UTF-8"?>

<!-- generated on 2023-06-23 16:42:09 by Eclipse SUMO netedit Version 1.15.0
<configuration xmlns:xsi="http://www.w3.org/2001/XMLSchema-instance" xsi:noNamespaceSchemaLocation="http://sumo.dlr.de/xsd/netconvertConfiguration.xsd">

    <input>
        <sumo-net-file value="C:\Users\Paulinho\Desktop\Master-Thesis\nodes\no_antas.net.xml"/>
    </input>

    <output>
        <output-file value="C:\Users\Paulinho\Desktop\Master-Thesis\nodes\no_antas.net.xml"/>
        <output.street-names value="true"/>
    </output>

    <processing>
        <geometry.min-radius.fix.railways value="false"/>
        <geometry.max-grade.fix value="false"/>
        <offset.disable-normalization value="true"/>
        <lefthand value="0"/>
    </processing>

    <junctions>
        <no-turnarounds value="true"/>
        <junctions.corner-detail value="5"/>
        <junctions.limit-turn-speed value="5.50"/>
        <rectangular-lane-cut value="0"/>
    </junctions>

    <pedestrian>
        <walkingareas value="0"/>
    </pedestrian>

    <netedit>
        <additional-files value="C:\Users\Paulinho\Desktop\Master-Thesis\nodes\no_antas_poi.xml"/>
    </netedit>

</configuration>
-->

<net version="1.9" junctionCornerDetail="5" limitTurnSpeed="5.50" xmlns:xsi="http://www.w3.org/2001/XMLSchema-instance" xsi:noNamespaceSchemaLocation="http://sumo.dlr.de/xsd/net_file.xsd">

    <location netOffset="-524914.43,-4544541.91" convBoundary="9431.34,12712.36,9960.52,13075.55" origBoundary="-8.702913,41.051318,-8.236192,41.279522" projParameter="+proj=utm +zone=29 +ellps=WGS84 +datum=WGS84 +units=m +no_defs"/>

    <type id="highway.bridleway" priority="1" numLanes="1" speed="2.78" allow="pedestrian" oneway="1" width="2.00"/>
    <type id="highway.bus_guideway" priority="1" numLanes="1" speed="27.78" allow="bus" oneway="1"/>
    <type id="highway.cycleway" priority="1" numLanes="1" speed="5.56" allow="bicycle" oneway="0" width="1.00"/>
    <type id="highway.footway" priority="1" numLanes="1" speed="2.78" allow="pedestrian" oneway="1" width="2.00"/>
    <type id="highway.ford" priority="1" numLanes="1" speed="2.78" allow="army" oneway="0"/>
    <type id="highway.living_street" priority="2" numLanes="1" speed="2.78" disallow="tram rail_urban rail rail_electric rail_fast ship" oneway="0"/>
    <type id="highway.motorway" priority="14" numLanes="2" speed="39.44" allow="private emergency authority army vip passenger hov taxi bus coach delivery truck trailer motorcycle evehicle custom1 custom2" oneway="1"/>
    <type id="highway.motorway_link" priority="9" numLanes="1" speed="22.22" allow="private emergency authority army vip passenger hov taxi bus coach delivery truck trailer motorcycle evehicle custom1 custom2" oneway="1"/>
    <type id="highway.path" priority="1" numLanes="1" speed="5.56" allow="pedestrian bicycle" oneway="0" width="2.00"/>
    <type id="highway.pedestrian" priority="1" numLanes="1" speed="2.78" allow="pedestrian" oneway="1" width="2.00"/>
    <type id="highway.primary" priority="12" numLanes="2" speed="27.78" disallow="tram rail_urban rail rail_electric rail_fast ship" oneway="0"/>
    <type id="highway.primary_link" priority="7" numLanes="1" speed="22.22" disallow="tram rail_urban rail rail_electric rail_fast ship" oneway="0"/>
    <type id="highway.raceway" priority="15" numLanes="2" speed="83.33" allow="vip" oneway="0"/>
    <type id="highway.residential" priority="3" numLanes="1" speed="13.89" disallow="tram rail_urban rail rail_electric rail_fast ship" oneway="0"/>
    <type id="highway.secondary" priority="11" numLanes="1" speed="27.78" disallow="tram rail_urban rail rail_electric rail_fast ship" oneway="0"/>
    <type id="highway.secondary_link" priority="6" numLanes="1" speed="22.22" disallow="tram rail_urban rail rail_electric rail_fast ship" oneway="0"/>
    <type id="highway.service" priority="1" numLanes="1" speed="5.56" allow="pedestrian delivery bicycle" oneway="0"/>
    <type id="highway.stairs" priority="1" numLanes="1" speed="1.39" allow="pedestrian" oneway="1" width="2.00"/>
    <type id="highway.step" priority="1" numLanes="1" speed="1.39" allow="pedestrian" oneway="1" width="2.00"/>
    <type id="highway.steps" priority="1" numLanes="1" speed="1.39" allow="pedestrian" oneway="1" width="2.00"/>
    <type id="highway.tertiary" priority="10" numLanes="1" speed="22.22" disallow="tram rail_urban rail rail_electric rail_fast ship" oneway="0"/>
    <type id="highway.tertiary_link" priority="5" numLanes="1" speed="22.22" disallow="tram rail_urban rail rail_electric rail_fast ship" oneway="0"/>
    <type id="highway.track" priority="1" numLanes="1" speed="5.56" allow="pedestrian motorcycle moped bicycle" oneway="0"/>
    <type id="highway.trunk" priority="13" numLanes="2" speed="27.78" disallow="pedestrian bicycle tram rail_urban rail rail_electric rail_fast ship" oneway="0"/>
    <type id="highway.trunk_link" priority="8" numLanes="1" speed="22.22" disallow="pedestrian bicycle tram rail_urban rail rail_electric rail_fast ship" oneway="0"/>
    <type id="highway.unclassified" priority="4" numLanes="1" speed="13.89" disallow="tram rail_urban rail rail_electric rail_fast ship" oneway="0"/>
    <type id="highway.unsurfaced" priority="1" numLanes="1" speed="8.33" disallow="tram rail_urban rail rail_electric rail_fast ship" oneway="0"/>
    <type id="railway.highspeed" priority="21" numLanes="1" speed="69.44" allow="rail_fast" oneway="1"/>
    <type id="railway.light_rail" priority="19" numLanes="1" speed="27.78" allow="rail_urban" oneway="1"/>
    <type id="railway.preserved" priority="16" numLanes="1" speed="27.78" allow="rail" oneway="1"/>
    <type id="railway.rail" priority="20" numLanes="1" speed="44.44" allow="rail" oneway="1"/>
    <type id="railway.subway" priority="18" numLanes="1" speed="27.78" allow="rail_urban" oneway="1"/>
    <type id="railway.tram" priority="17" numLanes="1" speed="13.89" allow="tram" oneway="1"/>

    <edge id=":1290243437_0" function="internal">
        <lane id=":1290243437_0_0" index="0" disallow="tram rail_urban rail rail_electric rail_fast ship" speed="27.78" length="8.20" shape="9666.50,12927.86 9667.48,12930.04 9668.51,12931.37 9669.55,12932.70 9670.56,12934.87"/>
        <lane id=":1290243437_0_1" index="1" disallow="tram rail_urban rail rail_electric rail_fast ship" speed="27.78" length="8.20" shape="9663.46,12928.86 9664.45,12931.06 9665.48,12932.40 9666.52,12933.74 9667.54,12935.92"/>
        <lane id=":1290243437_0_2" index="2" disallow="tram rail_urban rail rail_electric rail_fast ship" speed="27.78" length="8.20" shape="9663.46,12928.86 9663.98,12931.22 9663.97,12932.92 9663.97,12934.62 9664.52,12936.97"/>
    </edge>
    <edge id=":130075497_0" function="internal">
        <lane id=":130075497_0_0" index="0" allow="private emergency authority army vip passenger hov taxi bus coach delivery truck trailer motorcycle evehicle custom1 custom2" speed="22.22" length="4.40" shape="9763.61,12837.82 9762.43,12838.36 9761.65,12838.80 9760.94,12839.35 9759.93,12840.17"/>
    </edge>
    <edge id=":130075497_1" function="internal">
        <lane id=":130075497_1_0" index="0" allow="private emergency authority army vip passenger hov taxi bus coach delivery truck trailer motorcycle evehicle custom1 custom2" speed="22.22" length="5.73" shape="9762.36,12834.87 9760.98,12835.50 9760.08,12836.02 9759.22,12836.62 9757.96,12837.48"/>
        <lane id=":130075497_1_1" index="1" allow="private emergency authority army vip passenger hov taxi bus coach delivery truck trailer motorcycle evehicle custom1 custom2" speed="22.22" length="5.73" shape="9761.12,12831.93 9759.57,12832.63 9758.56,12833.20 9757.59,12833.86 9756.19,12834.82"/>
        <lane id=":130075497_1_2" index="2" allow="private emergency authority army vip passenger hov taxi bus coach delivery truck trailer motorcycle evehicle custom1 custom2" speed="22.22" length="5.73" shape="9759.87,12828.98 9758.16,12829.75 9757.04,12830.37 9755.97,12831.10 9754.42,12832.15"/>
    </edge>
    <edge id=":130075593_0" function="internal">
        <lane id=":130075593_0_0" index="0" allow="private emergency authority army vip passenger hov taxi bus coach delivery truck trailer motorcycle evehicle custom1 custom2" speed="22.22" length="4.01" shape="9660.64,13041.69 9656.83,13042.95"/>
    </edge>
    <edge id=":130075593_1" function="internal">
        <lane id=":130075593_1_0" index="0" allow="private emergency authority army vip passenger hov taxi bus coach delivery truck trailer motorcycle evehicle custom1 custom2" speed="9.35" length="3.79" shape="9659.12,13037.97 9658.32,13038.76 9657.71,13039.23 9657.00,13039.55 9655.94,13039.88"/>
    </edge>
    <edge id=":1352646998_0" function="internal">
        <lane id=":1352646998_0_0" index="0" allow="private emergency authority army vip passenger hov taxi bus coach delivery truck trailer motorcycle evehicle custom1 custom2" speed="25.00" length="3.44" shape="9695.04,13052.19 9694.65,13051.25 9694.33,13050.62 9693.94,13050.04 9693.32,13049.24"/>
    </edge>
    <edge id=":1352646998_1" function="internal">
        <lane id=":1352646998_1_0" index="0" disallow="tram rail_urban rail rail_electric rail_fast ship" speed="27.78" length="3.42" shape="9698.00,13050.97 9696.71,13047.80"/>
        <lane id=":1352646998_1_1" index="1" disallow="tram rail_urban rail rail_electric rail_fast ship" speed="27.78" length="3.42" shape="9700.96,13049.76 9699.68,13046.60"/>
    </edge>
    <edge id=":1352647022_0" function="internal">
        <lane id=":1352647022_0_0" index="0" allow="private emergency authority army vip passenger hov taxi bus coach delivery truck trailer motorcycle evehicle custom1 custom2" speed="25.00" length="18.61" shape="9684.12,12960.46 9683.88,12964.09 9683.60,12967.79 9683.89,12972.03 9685.37,12977.28"/>
        <lane id=":1352647022_0_1" index="1" allow="private emergency authority army vip passenger hov taxi bus coach delivery truck trailer motorcycle evehicle custom1 custom2" speed="25.00" length="18.61" shape="9684.12,12960.46 9683.39,12964.19 9682.03,12968.16 9681.28,12972.77 9682.38,12978.43"/>
        <lane id=":1352647022_0_2" index="2" allow="private emergency authority army vip passenger hov taxi bus coach delivery truck trailer motorcycle evehicle custom1 custom2" speed="25.00" length="18.61" shape="9684.12,12960.46 9682.88,12964.26 9680.43,12968.45 9678.64,12973.42 9679.40,12979.58"/>
    </edge>
    <edge id=":1352647022_3" function="internal">
        <lane id=":1352647022_3_0" index="0" disallow="tram rail_urban rail rail_electric rail_fast ship" speed="27.78" length="17.11" shape="9679.70,12961.16 9685.37,12977.28"/>
        <lane id=":1352647022_3_1" index="1" disallow="tram rail_urban rail rail_electric rail_fast ship" speed="27.78" length="17.11" shape="9676.70,12962.28 9682.38,12978.43"/>
        <lane id=":1352647022_3_2" index="2" disallow="tram rail_urban rail rail_electric rail_fast ship" speed="27.78" length="17.11" shape="9673.71,12963.41 9679.40,12979.58"/>
    </edge>
    <edge id=":1352663655_0" function="internal">
        <lane id=":1352663655_0_0" index="0" disallow="tram rail_urban rail rail_electric rail_fast ship" speed="27.78" length="3.05" shape="9644.29,12862.30 9645.25,12865.23"/>
        <lane id=":1352663655_0_1" index="1" disallow="tram rail_urban rail rail_electric rail_fast ship" speed="27.78" length="3.05" shape="9641.25,12863.32 9642.20,12866.19"/>
    </edge>
    <edge id=":1352663655_2" function="internal">
        <lane id=":1352663655_2_0" index="0" allow="private emergency authority army vip passenger hov taxi bus coach delivery truck trailer motorcycle evehicle custom1 custom2" speed="20.84" length="3.15" shape="9647.21,12861.31 9648.30,12864.27"/>
    </edge>
    <edge id=":1352663656_0" function="internal">
        <lane id=":1352663656_0_0" index="0" allow="private emergency authority army vip passenger hov taxi bus coach delivery truck trailer motorcycle evehicle custom1 custom2" speed="25.00" length="3.45" shape="9615.39,12765.16 9615.71,12766.13 9615.98,12766.78 9616.33,12767.39 9616.89,12768.24"/>
    </edge>
    <edge id=":1352663656_1" function="internal">
        <lane id=":1352663656_1_0" index="0" disallow="tram rail_urban rail rail_electric rail_fast ship" speed="27.78" length="3.48" shape="9612.34,12766.13 9613.41,12769.44"/>
        <lane id=":1352663656_1_1" index="1" disallow="tram rail_urban rail rail_electric rail_fast ship" speed="27.78" length="3.48" shape="9609.30,12767.10 9610.36,12770.42"/>
    </edge>
    <edge id=":1352663664_0" function="internal">
        <lane id=":1352663664_0_0" index="0" disallow="tram rail_urban rail rail_electric rail_fast ship" speed="27.78" length="2.94" shape="9622.92,12847.77 9621.95,12844.94"/>
        <lane id=":1352663664_0_1" index="1" disallow="tram rail_urban rail rail_electric rail_fast ship" speed="27.78" length="2.94" shape="9625.93,12846.69 9625.00,12843.95"/>
    </edge>
    <edge id=":1352663664_2" function="internal">
        <lane id=":1352663664_2_0" index="0" allow="private emergency authority army vip passenger hov taxi bus coach delivery truck trailer motorcycle evehicle custom1 custom2" speed="25.00" length="3.09" shape="9619.94,12848.83 9618.91,12845.92"/>
    </edge>
    <edge id=":13860802-AddedOnRampNode_0" function="internal">
        <lane id=":13860802-AddedOnRampNode_0_0" index="0" allow="private emergency authority army vip passenger hov taxi bus coach delivery truck trailer motorcycle evehicle custom1 custom2" speed="22.22" length="8.00" shape="9572.06,13018.32 9566.24,13012.82"/>
    </edge>
    <edge id=":26015872_0" function="internal">
        <lane id=":26015872_0_0" index="0" allow="private emergency authority army vip passenger hov taxi bus coach delivery truck trailer motorcycle evehicle custom1 custom2" speed="22.22" length="3.98" shape="9789.08,12798.95 9792.92,12797.88"/>
    </edge>
    <edge id=":26015872_1" function="internal">
        <lane id=":26015872_1_0" index="0" allow="private emergency authority army vip passenger hov taxi bus coach delivery truck trailer motorcycle evehicle custom1 custom2" speed="22.22" length="3.70" shape="9789.75,12802.28 9790.89,12801.82 9791.69,12801.52 9792.50,12801.29 9793.70,12800.98"/>
        <lane id=":26015872_1_1" index="1" allow="private emergency authority army vip passenger hov taxi bus coach delivery truck trailer motorcycle evehicle custom1 custom2" speed="22.22" length="3.70" shape="9790.97,12805.24 9791.98,12804.83 9792.69,12804.57 9793.41,12804.36 9794.47,12804.09"/>
        <lane id=":26015872_1_2" index="2" allow="private emergency authority army vip passenger hov taxi bus coach delivery truck trailer motorcycle evehicle custom1 custom2" speed="22.22" length="3.70" shape="9792.19,12808.20 9793.08,12807.84 9793.69,12807.61 9794.32,12807.43 9795.25,12807.19"/>
    </edge>
    <edge id=":299612575_0" function="internal">
        <lane id=":299612575_0_0" index="0" allow="private emergency authority army vip passenger hov taxi bus coach delivery truck trailer motorcycle evehicle custom1 custom2" speed="22.22" length="8.20" shape="9631.70,12903.15 9633.39,12901.28 9633.98,12899.47 9634.56,12897.68 9636.26,12895.81"/>
        <lane id=":299612575_0_1" index="1" allow="private emergency authority army vip passenger hov taxi bus coach delivery truck trailer motorcycle evehicle custom1 custom2" speed="22.22" length="8.20" shape="9631.70,12903.15 9638.15,12898.39"/>
        <lane id=":299612575_0_2" index="2" allow="private emergency authority army vip passenger hov taxi bus coach delivery truck trailer motorcycle evehicle custom1 custom2" speed="22.22" length="8.20" shape="9633.61,12905.72 9640.04,12900.97"/>
        <lane id=":299612575_0_3" index="3" allow="private emergency authority army vip passenger hov taxi bus coach delivery truck trailer motorcycle evehicle custom1 custom2" speed="22.22" length="8.20" shape="9635.52,12908.29 9641.93,12903.55"/>
    </edge>
    <edge id=":3092747273_0" function="internal">
        <lane id=":3092747273_0_0" index="0" allow="private emergency authority army vip passenger hov taxi bus coach delivery truck trailer motorcycle evehicle custom1 custom2" speed="18.05" length="4.74" shape="9667.69,12872.77 9668.83,12871.96 9669.66,12871.46 9670.52,12871.02 9671.78,12870.40"/>
    </edge>
    <edge id=":3092747273_1" function="internal">
        <lane id=":3092747273_1_0" index="0" allow="private emergency authority army vip passenger hov taxi bus coach delivery truck trailer motorcycle evehicle custom1 custom2" speed="22.22" length="3.73" shape="9669.58,12875.35 9673.02,12872.85"/>
        <lane id=":3092747273_1_1" index="1" allow="private emergency authority army vip passenger hov taxi bus coach delivery truck trailer motorcycle evehicle custom1 custom2" speed="22.22" length="3.73" shape="9671.47,12877.93 9674.49,12875.74"/>
        <lane id=":3092747273_1_2" index="2" allow="private emergency authority army vip passenger hov taxi bus coach delivery truck trailer motorcycle evehicle custom1 custom2" speed="22.22" length="3.73" shape="9673.36,12880.51 9675.95,12878.63"/>
    </edge>
    <edge id=":3092747274_0" function="internal">
        <lane id=":3092747274_0_0" index="0" allow="private emergency authority army vip passenger hov taxi bus coach delivery truck trailer motorcycle evehicle custom1 custom2" speed="22.22" length="3.39" shape="9515.83,13013.57 9513.17,13015.66"/>
        <lane id=":3092747274_0_1" index="1" allow="private emergency authority army vip passenger hov taxi bus coach delivery truck trailer motorcycle evehicle custom1 custom2" speed="22.22" length="3.39" shape="9513.85,13011.05 9511.19,13013.14"/>
        <lane id=":3092747274_0_2" index="2" allow="private emergency authority army vip passenger hov taxi bus coach delivery truck trailer motorcycle evehicle custom1 custom2" speed="22.22" length="3.39" shape="9511.88,13008.53 9509.22,13010.62"/>
    </edge>
    <edge id=":3092747274_3" function="internal">
        <lane id=":3092747274_3_0" index="0" allow="private emergency authority army vip passenger hov taxi bus coach delivery truck trailer motorcycle evehicle custom1 custom2" speed="22.22" length="3.39" shape="9517.68,13015.93 9516.95,13016.63 9516.45,13017.10 9515.93,13017.55 9515.14,13018.18"/>
    </edge>
    <edge id=":3092747279_0" function="internal">
        <lane id=":3092747279_0_0" index="0" allow="private emergency authority army vip passenger hov taxi bus coach delivery truck trailer motorcycle evehicle custom1 custom2" speed="22.22" length="3.16" shape="9610.02,12946.82 9609.26,12947.37 9608.75,12947.76 9608.26,12948.18 9607.56,12948.80"/>
    </edge>
    <edge id=":3092747279_1" function="internal">
        <lane id=":3092747279_1_0" index="0" allow="private emergency authority army vip passenger hov taxi bus coach delivery truck trailer motorcycle evehicle custom1 custom2" speed="22.22" length="3.29" shape="9608.14,12944.23 9605.53,12946.16"/>
        <lane id=":3092747279_1_1" index="1" allow="private emergency authority army vip passenger hov taxi bus coach delivery truck trailer motorcycle evehicle custom1 custom2" speed="22.22" length="3.29" shape="9606.26,12941.64 9603.61,12943.59"/>
        <lane id=":3092747279_1_2" index="2" allow="private emergency authority army vip passenger hov taxi bus coach delivery truck trailer motorcycle evehicle custom1 custom2" speed="22.22" length="3.29" shape="9604.39,12939.05 9601.70,12941.03"/>
    </edge>
    <edge id=":409118177_0" function="internal">
        <lane id=":409118177_0_0" index="0" allow="private emergency authority army vip passenger hov taxi bus coach delivery truck trailer motorcycle evehicle custom1 custom2" speed="22.22" length="3.07" shape="9479.80,13012.99 9482.14,13010.99"/>
    </edge>
    <edge id=":409118177_1" function="internal">
        <lane id=":409118177_1_0" index="0" allow="private emergency authority army vip passenger hov taxi bus coach delivery truck trailer motorcycle evehicle custom1 custom2" speed="22.22" length="3.22" shape="9481.83,13015.47 9484.42,13013.41"/>
        <lane id=":409118177_1_1" index="1" allow="private emergency authority army vip passenger hov taxi bus coach delivery truck trailer motorcycle evehicle custom1 custom2" speed="22.22" length="3.22" shape="9483.86,13017.95 9486.37,13015.95"/>
        <lane id=":409118177_1_2" index="2" allow="private emergency authority army vip passenger hov taxi bus coach delivery truck trailer motorcycle evehicle custom1 custom2" speed="22.22" length="3.22" shape="9485.88,13020.42 9488.33,13018.48"/>
    </edge>
    <edge id=":444023189_0" function="internal">
        <lane id=":444023189_0_0" index="0" allow="private emergency authority army vip passenger hov taxi bus coach delivery truck trailer motorcycle evehicle custom1 custom2" speed="22.22" length="8.19" shape="9670.71,12898.81 9669.02,12900.70 9668.43,12902.51 9667.83,12904.31 9666.12,12906.16"/>
        <lane id=":444023189_0_1" index="1" allow="private emergency authority army vip passenger hov taxi bus coach delivery truck trailer motorcycle evehicle custom1 custom2" speed="22.22" length="8.19" shape="9670.71,12898.81 9664.24,12903.57"/>
        <lane id=":444023189_0_2" index="2" allow="private emergency authority army vip passenger hov taxi bus coach delivery truck trailer motorcycle evehicle custom1 custom2" speed="22.22" length="8.19" shape="9668.79,12896.25 9662.37,12900.98"/>
        <lane id=":444023189_0_3" index="3" allow="private emergency authority army vip passenger hov taxi bus coach delivery truck trailer motorcycle evehicle custom1 custom2" speed="22.22" length="8.19" shape="9666.87,12893.69 9660.49,12898.39"/>
    </edge>
    <edge id=":4464130485_0" function="internal">
        <lane id=":4464130485_0_0" index="0" allow="private emergency authority army vip passenger hov taxi bus coach delivery truck trailer motorcycle evehicle custom1 custom2" speed="25.00" length="2.92" shape="9656.53,12948.33 9655.62,12945.56"/>
    </edge>
    <edge id=":4464130485_1" function="internal">
        <lane id=":4464130485_1_0" index="0" disallow="tram rail_urban rail rail_electric rail_fast ship" speed="27.78" length="3.10" shape="9658.03,12947.76 9657.96,12946.87 9658.32,12946.24 9658.70,12945.59 9658.70,12944.68"/>
        <lane id=":4464130485_1_1" index="1" disallow="tram rail_urban rail rail_electric rail_fast ship" speed="27.78" length="3.10" shape="9661.03,12946.63 9661.77,12943.80"/>
    </edge>
    <edge id=":4731670867_0" function="internal">
        <lane id=":4731670867_0_0" index="0" disallow="tram rail_urban rail rail_electric rail_fast ship" speed="27.78" length="8.17" shape="9650.34,12918.48 9649.35,12916.31 9648.32,12914.99 9647.27,12913.69 9646.21,12911.55"/>
        <lane id=":4731670867_0_1" index="1" disallow="tram rail_urban rail rail_electric rail_fast ship" speed="27.78" length="8.17" shape="9653.37,12917.47 9652.38,12915.27 9651.34,12913.93 9650.28,12912.60 9649.21,12910.43"/>
    </edge>
    <edge id=":4731670868_0" function="internal">
        <lane id=":4731670868_0_0" index="0" disallow="tram rail_urban rail rail_electric rail_fast ship" speed="27.78" length="7.97" shape="9659.64,12907.32 9662.22,12914.90"/>
        <lane id=":4731670868_0_1" index="1" disallow="tram rail_urban rail rail_electric rail_fast ship" speed="27.78" length="7.97" shape="9656.62,12908.38 9659.18,12915.90"/>
    </edge>
    <edge id=":5307607945_0" function="internal">
        <lane id=":5307607945_0_0" index="0" disallow="tram rail_urban rail rail_electric rail_fast ship" speed="27.78" length="8.00" shape="9597.11,12765.29 9594.83,12757.62"/>
        <lane id=":5307607945_0_1" index="1" disallow="tram rail_urban rail rail_electric rail_fast ship" speed="27.78" length="8.00" shape="9600.17,12764.38 9597.90,12756.71"/>
    </edge>
    <edge id=":cluster_130075590_1352647030_0" function="internal">
        <lane id=":cluster_130075590_1352647030_0_0" index="0" disallow="tram rail_urban rail rail_electric rail_fast ship" speed="27.78" length="12.18" shape="9684.48,13017.37 9680.06,13006.04"/>
        <lane id=":cluster_130075590_1352647030_0_1" index="1" disallow="tram rail_urban rail rail_electric rail_fast ship" speed="27.78" length="12.18" shape="9687.48,13016.26 9683.05,13004.91"/>
    </edge>
    <edge id=":cluster_130075590_1352647030_2" function="internal">
        <lane id=":cluster_130075590_1352647030_2_0" index="0" disallow="tram rail_urban rail rail_electric rail_fast ship" speed="27.78" length="12.40" shape="9694.36,13000.64 9695.41,13004.14 9695.73,13006.67 9696.04,13009.19 9697.05,13012.71"/>
        <lane id=":cluster_130075590_1352647030_2_1" index="1" disallow="tram rail_urban rail rail_electric rail_fast ship" speed="27.78" length="12.40" shape="9691.36,13001.77 9692.42,13005.27 9692.74,13007.79 9693.04,13010.31 9694.05,13013.83"/>
    </edge>
    <edge id=":cluster_130075590_1352647030_4" function="internal">
        <lane id=":cluster_130075590_1352647030_4_0" index="0" allow="private emergency authority army vip passenger hov taxi bus coach delivery truck trailer motorcycle evehicle custom1 custom2" speed="12.02" length="4.42" shape="9688.37,13002.90 9687.56,13003.34 9685.56,13005.81 9685.37,13006.07"/>
    </edge>
    <edge id=":cluster_130075590_1352647030_5" function="internal">
        <lane id=":cluster_130075590_1352647030_5_0" index="0" allow="private emergency authority army vip passenger hov taxi bus coach delivery truck trailer motorcycle evehicle custom1 custom2" speed="12.02" length="13.05" shape="9685.37,13006.07 9682.38,13010.31 9678.02,13016.85"/>
    </edge>

    <edge id="118670828#0" from="1352663656" to="26015872" priority="9" type="highway.motorway_link" spreadType="center" shape="9615.92,12766.81 9621.35,12774.79 9626.45,12777.43 9632.10,12780.43 9638.97,12782.19 9646.72,12783.75 9666.41,12783.27 9676.45,12783.24 9685.30,12785.16 9693.18,12789.06 9698.32,12792.17 9711.55,12801.53 9718.63,12805.26 9727.27,12808.22 9754.72,12809.47 9791.14,12798.32">
        <lane id="118670828#0_0" index="0" allow="private emergency authority army vip passenger hov taxi bus coach delivery truck trailer motorcycle evehicle custom1 custom2" speed="22.22" length="185.41" shape="9616.89,12768.24 9621.35,12774.79 9626.45,12777.43 9632.10,12780.43 9638.97,12782.19 9646.72,12783.75 9666.41,12783.27 9676.45,12783.24 9685.30,12785.16 9693.18,12789.06 9698.32,12792.17 9711.55,12801.53 9718.63,12805.26 9727.27,12808.22 9754.72,12809.47 9789.08,12798.95">
            <param key="origId" value="118670828"/>
        </lane>
    </edge>
    <edge id="13860800#0" from="1352646998" to="130075593" priority="9" type="highway.motorway_link" spreadType="center" shape="9694.39,13050.60 9688.43,13043.05 9683.23,13041.38 9677.48,13039.53 9668.13,13038.94 9658.66,13042.42">
        <lane id="13860800#0_0" index="0" allow="private emergency authority army vip passenger hov taxi bus coach delivery truck trailer motorcycle evehicle custom1 custom2" speed="22.22" length="36.74" shape="9693.32,13049.24 9688.43,13043.05 9683.23,13041.38 9677.48,13039.53 9668.13,13038.94 9660.64,13041.69">
            <param key="origId" value="13860800"/>
        </lane>
    </edge>
    <edge id="13860802" from="13860802-AddedOnRampNode" to="3092747274" priority="9" type="highway.motorway_link" spreadType="center" shape="9569.15,13015.57 9565.85,13012.45 9556.39,13007.62 9547.14,13005.32 9539.70,13005.64 9525.14,13008.76 9516.22,13017.33">
        <lane id="13860802_0" index="0" allow="private emergency authority army vip passenger hov taxi bus coach delivery truck trailer motorcycle evehicle custom1 custom2" speed="22.22" length="53.38" shape="9566.24,13012.82 9565.85,13012.45 9556.39,13007.62 9547.14,13005.32 9539.70,13005.64 9525.14,13008.76 9517.68,13015.93">
            <param key="origId" value="13860802"/>
        </lane>
    </edge>
    <edge id="13860802-AddedOnRampEdge" from="130075593" to="13860802-AddedOnRampNode" priority="9" type="highway.motorway_link" spreadType="center" shape="9658.22,13040.88 9643.96,13045.05 9629.18,13047.41 9618.70,13047.59 9607.61,13046.21 9590.41,13038.78 9580.44,13030.07 9572.13,13020.59 9568.05,13016.73">
        <lane id="13860802-AddedOnRampEdge_0" index="0" allow="private emergency authority army vip passenger hov taxi bus coach delivery truck trailer motorcycle evehicle custom1 custom2" speed="22.22" length="95.77" acceleration="1" shape="9656.83,13042.95 9644.31,13046.61 9629.32,13049.01 9618.61,13049.19 9607.19,13047.77 9589.55,13040.15 9579.31,13031.20 9570.98,13021.70 9569.86,13020.64">
            <param key="origId" value="13860802"/>
        </lane>
        <lane id="13860802-AddedOnRampEdge_1" index="1" allow="private emergency authority army vip passenger hov taxi bus coach delivery truck trailer motorcycle evehicle custom1 custom2" speed="22.22" length="95.77" shape="9655.94,13039.88 9643.61,13043.49 9629.04,13045.81 9618.79,13045.99 9608.03,13044.65 9591.27,13037.41 9581.57,13028.94 9573.28,13019.48 9572.06,13018.32">
            <param key="origId" value="13860802"/>
        </lane>
    </edge>
    <edge id="27292207#0" from="130075497" to="1352647022" priority="9" type="highway.motorway_link" spreadType="center" shape="9762.03,12838.49 9715.56,12875.65 9699.88,12896.60 9688.93,12919.90 9684.13,12946.73 9684.12,12956.59 9684.11,12967.32 9683.41,12981.10">
        <lane id="27292207#0_0" index="0" allow="private emergency authority army vip passenger hov taxi bus coach delivery truck trailer motorcycle evehicle custom1 custom2" speed="22.22" length="149.70" shape="9759.93,12840.17 9715.56,12875.65 9699.88,12896.60 9688.93,12919.90 9684.13,12946.73 9684.12,12956.59 9684.12,12960.46">
            <param key="origId" value="27292207"/>
        </lane>
    </edge>