<?xml version="1.0" encoding="UTF-8"?>

<!-- generated on 2023-03-15 16:04:33 by Eclipse SUMO netedit Version 1.15.0
<configuration xmlns:xsi="http://www.w3.org/2001/XMLSchema-instance" xsi:noNamespaceSchemaLocation="http://sumo.dlr.de/xsd/netconvertConfiguration.xsd">

    <input>
        <sumo-net-file value="C:\Users\Paulinho\Desktop\Master-Thesis\sumo\vci.net.xml.gz"/>
    </input>

    <output>
        <output-file value="C:\Users\Paulinho\Desktop\Master-Thesis\nodes\no_antas.net.xml"/>
        <output.street-names value="true"/>
    </output>

    <processing>
        <geometry.min-radius.fix.railways value="false"/>
        <geometry.max-grade.fix value="false"/>
        <offset.disable-normalization value="true"/>
        <lefthand value="0"/>
    </processing>

    <junctions>
        <no-turnarounds value="true"/>
        <junctions.corner-detail value="5"/>
        <junctions.limit-turn-speed value="5.50"/>
        <rectangular-lane-cut value="0"/>
    </junctions>

    <pedestrian>
        <walkingareas value="0"/>
    </pedestrian>

    <netedit>
        <additional-files value="C:\Users\Paulinho\Desktop\Master-Thesis\nodes\no_antas_poi.xml"/>
    </netedit>

</configuration>
-->

<net version="1.9" junctionCornerDetail="5" limitTurnSpeed="5.50" xmlns:xsi="http://www.w3.org/2001/XMLSchema-instance" xsi:noNamespaceSchemaLocation="http://sumo.dlr.de/xsd/net_file.xsd">

    <location netOffset="-524914.43,-4544541.91" convBoundary="9069.31,12504.68,10066.17,13586.97" origBoundary="-8.702913,41.051318,-8.236192,41.279522" projParameter="+proj=utm +zone=29 +ellps=WGS84 +datum=WGS84 +units=m +no_defs"/>

    <type id="highway.bridleway" priority="1" numLanes="1" speed="2.78" allow="pedestrian" oneway="1" width="2.00"/>
    <type id="highway.bus_guideway" priority="1" numLanes="1" speed="27.78" allow="bus" oneway="1"/>
    <type id="highway.cycleway" priority="1" numLanes="1" speed="5.56" allow="bicycle" oneway="0" width="1.00"/>
    <type id="highway.footway" priority="1" numLanes="1" speed="2.78" allow="pedestrian" oneway="1" width="2.00"/>
    <type id="highway.ford" priority="1" numLanes="1" speed="2.78" allow="army" oneway="0"/>
    <type id="highway.living_street" priority="2" numLanes="1" speed="2.78" disallow="tram rail_urban rail rail_electric rail_fast ship" oneway="0"/>
    <type id="highway.motorway" priority="14" numLanes="2" speed="39.44" allow="private emergency authority army vip passenger hov taxi bus coach delivery truck trailer motorcycle evehicle custom1 custom2" oneway="1"/>
    <type id="highway.motorway_link" priority="9" numLanes="1" speed="22.22" allow="private emergency authority army vip passenger hov taxi bus coach delivery truck trailer motorcycle evehicle custom1 custom2" oneway="1"/>
    <type id="highway.path" priority="1" numLanes="1" speed="5.56" allow="pedestrian bicycle" oneway="0" width="2.00"/>
    <type id="highway.pedestrian" priority="1" numLanes="1" speed="2.78" allow="pedestrian" oneway="1" width="2.00"/>
    <type id="highway.primary" priority="12" numLanes="2" speed="27.78" disallow="tram rail_urban rail rail_electric rail_fast ship" oneway="0"/>
    <type id="highway.primary_link" priority="7" numLanes="1" speed="22.22" disallow="tram rail_urban rail rail_electric rail_fast ship" oneway="0"/>
    <type id="highway.raceway" priority="15" numLanes="2" speed="83.33" allow="vip" oneway="0"/>
    <type id="highway.residential" priority="3" numLanes="1" speed="13.89" disallow="tram rail_urban rail rail_electric rail_fast ship" oneway="0"/>
    <type id="highway.secondary" priority="11" numLanes="1" speed="27.78" disallow="tram rail_urban rail rail_electric rail_fast ship" oneway="0"/>
    <type id="highway.secondary_link" priority="6" numLanes="1" speed="22.22" disallow="tram rail_urban rail rail_electric rail_fast ship" oneway="0"/>
    <type id="highway.service" priority="1" numLanes="1" speed="5.56" allow="pedestrian delivery bicycle" oneway="0"/>
    <type id="highway.stairs" priority="1" numLanes="1" speed="1.39" allow="pedestrian" oneway="1" width="2.00"/>
    <type id="highway.step" priority="1" numLanes="1" speed="1.39" allow="pedestrian" oneway="1" width="2.00"/>
    <type id="highway.steps" priority="1" numLanes="1" speed="1.39" allow="pedestrian" oneway="1" width="2.00"/>
    <type id="highway.tertiary" priority="10" numLanes="1" speed="22.22" disallow="tram rail_urban rail rail_electric rail_fast ship" oneway="0"/>
    <type id="highway.tertiary_link" priority="5" numLanes="1" speed="22.22" disallow="tram rail_urban rail rail_electric rail_fast ship" oneway="0"/>
    <type id="highway.track" priority="1" numLanes="1" speed="5.56" allow="pedestrian motorcycle moped bicycle" oneway="0"/>
    <type id="highway.trunk" priority="13" numLanes="2" speed="27.78" disallow="pedestrian bicycle tram rail_urban rail rail_electric rail_fast ship" oneway="0"/>
    <type id="highway.trunk_link" priority="8" numLanes="1" speed="22.22" disallow="pedestrian bicycle tram rail_urban rail rail_electric rail_fast ship" oneway="0"/>
    <type id="highway.unclassified" priority="4" numLanes="1" speed="13.89" disallow="tram rail_urban rail rail_electric rail_fast ship" oneway="0"/>
    <type id="highway.unsurfaced" priority="1" numLanes="1" speed="8.33" disallow="tram rail_urban rail rail_electric rail_fast ship" oneway="0"/>
    <type id="railway.highspeed" priority="21" numLanes="1" speed="69.44" allow="rail_fast" oneway="1"/>
    <type id="railway.light_rail" priority="19" numLanes="1" speed="27.78" allow="rail_urban" oneway="1"/>
    <type id="railway.preserved" priority="16" numLanes="1" speed="27.78" allow="rail" oneway="1"/>
    <type id="railway.rail" priority="20" numLanes="1" speed="44.44" allow="rail" oneway="1"/>
    <type id="railway.subway" priority="18" numLanes="1" speed="27.78" allow="rail_urban" oneway="1"/>
    <type id="railway.tram" priority="17" numLanes="1" speed="13.89" allow="tram" oneway="1"/>

    <edge id=":1290243437_0" function="internal">
        <lane id=":1290243437_0_0" index="0" disallow="tram rail_urban rail rail_electric rail_fast ship" speed="27.78" length="8.20" shape="9666.50,12927.86 9667.48,12930.04 9668.51,12931.37 9669.55,12932.70 9670.56,12934.87"/>
        <lane id=":1290243437_0_1" index="1" disallow="tram rail_urban rail rail_electric rail_fast ship" speed="27.78" length="8.20" shape="9663.46,12928.86 9664.45,12931.06 9665.48,12932.40 9666.52,12933.74 9667.54,12935.92"/>
        <lane id=":1290243437_0_2" index="2" disallow="tram rail_urban rail rail_electric rail_fast ship" speed="27.78" length="8.20" shape="9663.46,12928.86 9663.98,12931.22 9663.97,12932.92 9663.97,12934.62 9664.52,12936.97"/>
    </edge>
    <edge id=":130075494_0" function="internal">
        <lane id=":130075494_0_0" index="0" allow="private emergency authority army vip passenger hov taxi bus coach delivery truck trailer motorcycle evehicle custom1 custom2" speed="22.22" length="1.72" shape="9865.66,12809.77 9865.40,12811.40"/>
        <lane id=":130075494_0_1" index="1" allow="private emergency authority army vip passenger hov taxi bus coach delivery truck trailer motorcycle evehicle custom1 custom2" speed="22.22" length="1.72" shape="9865.44,12806.58 9865.03,12808.23"/>
        <lane id=":130075494_0_2" index="2" allow="private emergency authority army vip passenger hov taxi bus coach delivery truck trailer motorcycle evehicle custom1 custom2" speed="22.22" length="1.72" shape="9865.22,12803.39 9864.67,12805.05"/>
        <lane id=":130075494_0_3" index="3" allow="private emergency authority army vip passenger hov taxi bus coach delivery truck trailer motorcycle evehicle custom1 custom2" speed="22.22" length="1.72" shape="9865.00,12800.20 9864.30,12801.87"/>
    </edge>
    <edge id=":130075497_0" function="internal">
        <lane id=":130075497_0_0" index="0" allow="private emergency authority army vip passenger hov taxi bus coach delivery truck trailer motorcycle evehicle custom1 custom2" speed="22.22" length="4.40" shape="9763.61,12837.82 9762.43,12838.36 9761.65,12838.80 9760.94,12839.35 9759.93,12840.17"/>
    </edge>
    <edge id=":130075497_1" function="internal">
        <lane id=":130075497_1_0" index="0" allow="private emergency authority army vip passenger hov taxi bus coach delivery truck trailer motorcycle evehicle custom1 custom2" speed="22.22" length="5.73" shape="9762.36,12834.87 9760.98,12835.50 9760.08,12836.02 9759.22,12836.62 9757.96,12837.48"/>
        <lane id=":130075497_1_1" index="1" allow="private emergency authority army vip passenger hov taxi bus coach delivery truck trailer motorcycle evehicle custom1 custom2" speed="22.22" length="5.73" shape="9761.12,12831.93 9759.57,12832.63 9758.56,12833.20 9757.59,12833.86 9756.19,12834.82"/>
        <lane id=":130075497_1_2" index="2" allow="private emergency authority army vip passenger hov taxi bus coach delivery truck trailer motorcycle evehicle custom1 custom2" speed="22.22" length="5.73" shape="9759.87,12828.98 9758.16,12829.75 9757.04,12830.37 9755.97,12831.10 9754.42,12832.15"/>
    </edge>
    <edge id=":130075593_0" function="internal">
        <lane id=":130075593_0_0" index="0" allow="private emergency authority army vip passenger hov taxi bus coach delivery truck trailer motorcycle evehicle custom1 custom2" speed="22.22" length="4.01" shape="9660.64,13041.69 9656.83,13042.95"/>
    </edge>
    <edge id=":130075593_1" function="internal">
        <lane id=":130075593_1_0" index="0" allow="private emergency authority army vip passenger hov taxi bus coach delivery truck trailer motorcycle evehicle custom1 custom2" speed="9.35" length="3.79" shape="9659.12,13037.97 9658.32,13038.76 9657.71,13039.23 9657.00,13039.55 9655.94,13039.88"/>
    </edge>
    <edge id=":1352646998_0" function="internal">
        <lane id=":1352646998_0_0" index="0" allow="private emergency authority army vip passenger hov taxi bus coach delivery truck trailer motorcycle evehicle custom1 custom2" speed="25.00" length="3.44" shape="9695.04,13052.19 9694.65,13051.25 9694.33,13050.62 9693.94,13050.04 9693.32,13049.24"/>
    </edge>
    <edge id=":1352646998_1" function="internal">
        <lane id=":1352646998_1_0" index="0" disallow="tram rail_urban rail rail_electric rail_fast ship" speed="27.78" length="3.42" shape="9698.00,13050.97 9696.71,13047.80"/>
        <lane id=":1352646998_1_1" index="1" disallow="tram rail_urban rail rail_electric rail_fast ship" speed="27.78" length="3.42" shape="9700.96,13049.76 9699.68,13046.60"/>
    </edge>
    <edge id=":1352647022_0" function="internal">
        <lane id=":1352647022_0_0" index="0" allow="private emergency authority army vip passenger hov taxi bus coach delivery truck trailer motorcycle evehicle custom1 custom2" speed="25.00" length="18.61" shape="9684.12,12960.46 9683.88,12964.09 9683.60,12967.79 9683.89,12972.03 9685.37,12977.28"/>
        <lane id=":1352647022_0_1" index="1" allow="private emergency authority army vip passenger hov taxi bus coach delivery truck trailer motorcycle evehicle custom1 custom2" speed="25.00" length="18.61" shape="9684.12,12960.46 9683.39,12964.19 9682.03,12968.16 9681.28,12972.77 9682.38,12978.43"/>
        <lane id=":1352647022_0_2" index="2" allow="private emergency authority army vip passenger hov taxi bus coach delivery truck trailer motorcycle evehicle custom1 custom2" speed="25.00" length="18.61" shape="9684.12,12960.46 9682.88,12964.26 9680.43,12968.45 9678.64,12973.42 9679.40,12979.58"/>
    </edge>
    <edge id=":1352647022_3" function="internal">
        <lane id=":1352647022_3_0" index="0" disallow="tram rail_urban rail rail_electric rail_fast ship" speed="27.78" length="17.11" shape="9679.70,12961.16 9685.37,12977.28"/>
        <lane id=":1352647022_3_1" index="1" disallow="tram rail_urban rail rail_electric rail_fast ship" speed="27.78" length="17.11" shape="9676.70,12962.28 9682.38,12978.43"/>
        <lane id=":1352647022_3_2" index="2" disallow="tram rail_urban rail rail_electric rail_fast ship" speed="27.78" length="17.11" shape="9673.71,12963.41 9679.40,12979.58"/>
    </edge>
    <edge id=":1352647025_0" function="internal">
        <lane id=":1352647025_0_0" index="0" disallow="tram rail_urban rail rail_electric rail_fast ship" speed="27.78" length="8.08" shape="9769.07,13236.40 9766.09,13228.82"/>
        <lane id=":1352647025_0_1" index="1" disallow="tram rail_urban rail rail_electric rail_fast ship" speed="27.78" length="8.08" shape="9772.02,13235.17 9769.09,13227.71"/>
    </edge>
    <edge id=":1352647025_2" function="internal">
        <lane id=":1352647025_2_0" index="0" disallow="tram rail_urban rail rail_electric rail_fast ship" speed="27.78" length="8.57" shape="9778.10,13224.39 9778.45,13226.80 9777.95,13228.57 9777.48,13230.33 9777.93,13232.70"/>
        <lane id=":1352647025_2_1" index="1" disallow="tram rail_urban rail rail_electric rail_fast ship" speed="27.78" length="8.57" shape="9775.10,13225.50 9775.46,13227.94 9774.97,13229.74 9774.51,13231.53 9774.97,13233.93"/>
    </edge>
    <edge id=":1352663628_0" function="internal">
        <lane id=":1352663628_0_0" index="0" disallow="tram rail_urban rail rail_electric rail_fast ship" speed="27.78" length="28.72" shape="9572.31,12678.56 9563.01,12651.51"/>
        <lane id=":1352663628_0_1" index="1" disallow="tram rail_urban rail rail_electric rail_fast ship" speed="27.78" length="28.72" shape="9575.40,12677.73 9566.04,12650.46"/>
    </edge>
    <edge id=":1352663628_2" function="internal">
        <lane id=":1352663628_2_0" index="0" disallow="tram rail_urban rail rail_electric rail_fast ship" speed="25.00" length="28.29" shape="9575.40,12677.73 9569.54,12650.06"/>
    </edge>
    <edge id=":1352663655_0" function="internal">
        <lane id=":1352663655_0_0" index="0" disallow="tram rail_urban rail rail_electric rail_fast ship" speed="27.78" length="3.05" shape="9644.29,12862.30 9645.25,12865.23"/>
        <lane id=":1352663655_0_1" index="1" disallow="tram rail_urban rail rail_electric rail_fast ship" speed="27.78" length="3.05" shape="9641.25,12863.32 9642.20,12866.19"/>
    </edge>
    <edge id=":1352663655_2" function="internal">
        <lane id=":1352663655_2_0" index="0" allow="private emergency authority army vip passenger hov taxi bus coach delivery truck trailer motorcycle evehicle custom1 custom2" speed="20.84" length="3.15" shape="9647.21,12861.31 9648.30,12864.27"/>
    </edge>
    <edge id=":1352663656_0" function="internal">
        <lane id=":1352663656_0_0" index="0" allow="private emergency authority army vip passenger hov taxi bus coach delivery truck trailer motorcycle evehicle custom1 custom2" speed="25.00" length="3.45" shape="9615.39,12765.16 9615.71,12766.13 9615.98,12766.78 9616.33,12767.39 9616.89,12768.24"/>
    </edge>
    <edge id=":1352663656_1" function="internal">
        <lane id=":1352663656_1_0" index="0" disallow="tram rail_urban rail rail_electric rail_fast ship" speed="27.78" length="3.48" shape="9612.34,12766.13 9613.41,12769.44"/>
        <lane id=":1352663656_1_1" index="1" disallow="tram rail_urban rail rail_electric rail_fast ship" speed="27.78" length="3.48" shape="9609.30,12767.10 9610.36,12770.42"/>
    </edge>
    <edge id=":1352663664_0" function="internal">
        <lane id=":1352663664_0_0" index="0" disallow="tram rail_urban rail rail_electric rail_fast ship" speed="27.78" length="2.94" shape="9622.92,12847.77 9621.95,12844.94"/>
        <lane id=":1352663664_0_1" index="1" disallow="tram rail_urban rail rail_electric rail_fast ship" speed="27.78" length="2.94" shape="9625.93,12846.69 9625.00,12843.95"/>
    </edge>
    <edge id=":1352663664_2" function="internal">
        <lane id=":1352663664_2_0" index="0" allow="private emergency authority army vip passenger hov taxi bus coach delivery truck trailer motorcycle evehicle custom1 custom2" speed="25.00" length="3.09" shape="9619.94,12848.83 9618.91,12845.92"/>
    </edge>
    <edge id=":13860802-AddedOnRampNode_0" function="internal">
        <lane id=":13860802-AddedOnRampNode_0_0" index="0" allow="private emergency authority army vip passenger hov taxi bus coach delivery truck trailer motorcycle evehicle custom1 custom2" speed="22.22" length="8.00" shape="9572.06,13018.32 9566.24,13012.82"/>
    </edge>
    <edge id=":26015872_0" function="internal">
        <lane id=":26015872_0_0" index="0" allow="private emergency authority army vip passenger hov taxi bus coach delivery truck trailer motorcycle evehicle custom1 custom2" speed="22.22" length="3.98" shape="9789.08,12798.95 9792.92,12797.88"/>
    </edge>
    <edge id=":26015872_1" function="internal">
        <lane id=":26015872_1_0" index="0" allow="private emergency authority army vip passenger hov taxi bus coach delivery truck trailer motorcycle evehicle custom1 custom2" speed="22.22" length="3.70" shape="9789.75,12802.28 9790.89,12801.82 9791.69,12801.52 9792.50,12801.29 9793.70,12800.98"/>
        <lane id=":26015872_1_1" index="1" allow="private emergency authority army vip passenger hov taxi bus coach delivery truck trailer motorcycle evehicle custom1 custom2" speed="22.22" length="3.70" shape="9790.97,12805.24 9791.98,12804.83 9792.69,12804.57 9793.41,12804.36 9794.47,12804.09"/>
        <lane id=":26015872_1_2" index="2" allow="private emergency authority army vip passenger hov taxi bus coach delivery truck trailer motorcycle evehicle custom1 custom2" speed="22.22" length="3.70" shape="9792.19,12808.20 9793.08,12807.84 9793.69,12807.61 9794.32,12807.43 9795.25,12807.19"/>
    </edge>
    <edge id=":299612575_0" function="internal">
        <lane id=":299612575_0_0" index="0" allow="private emergency authority army vip passenger hov taxi bus coach delivery truck trailer motorcycle evehicle custom1 custom2" speed="22.22" length="8.20" shape="9631.70,12903.15 9633.39,12901.28 9633.98,12899.47 9634.56,12897.68 9636.26,12895.81"/>
        <lane id=":299612575_0_1" index="1" allow="private emergency authority army vip passenger hov taxi bus coach delivery truck trailer motorcycle evehicle custom1 custom2" speed="22.22" length="8.20" shape="9631.70,12903.15 9638.15,12898.39"/>
        <lane id=":299612575_0_2" index="2" allow="private emergency authority army vip passenger hov taxi bus coach delivery truck trailer motorcycle evehicle custom1 custom2" speed="22.22" length="8.20" shape="9633.61,12905.72 9640.04,12900.97"/>
        <lane id=":299612575_0_3" index="3" allow="private emergency authority army vip passenger hov taxi bus coach delivery truck trailer motorcycle evehicle custom1 custom2" speed="22.22" length="8.20" shape="9635.52,12908.29 9641.93,12903.55"/>
    </edge>
    <edge id=":3092747273_0" function="internal">
        <lane id=":3092747273_0_0" index="0" allow="private emergency authority army vip passenger hov taxi bus coach delivery truck trailer motorcycle evehicle custom1 custom2" speed="18.05" length="4.74" shape="9667.69,12872.77 9668.83,12871.96 9669.66,12871.46 9670.52,12871.02 9671.78,12870.40"/>
    </edge>
    <edge id=":3092747273_1" function="internal">
        <lane id=":3092747273_1_0" index="0" allow="private emergency authority army vip passenger hov taxi bus coach delivery truck trailer motorcycle evehicle custom1 custom2" speed="22.22" length="3.73" shape="9669.58,12875.35 9673.02,12872.85"/>
        <lane id=":3092747273_1_1" index="1" allow="private emergency authority army vip passenger hov taxi bus coach delivery truck trailer motorcycle evehicle custom1 custom2" speed="22.22" length="3.73" shape="9671.47,12877.93 9674.49,12875.74"/>
        <lane id=":3092747273_1_2" index="2" allow="private emergency authority army vip passenger hov taxi bus coach delivery truck trailer motorcycle evehicle custom1 custom2" speed="22.22" length="3.73" shape="9673.36,12880.51 9675.95,12878.63"/>
    </edge>
    <edge id=":3092747274_0" function="internal">
        <lane id=":3092747274_0_0" index="0" allow="private emergency authority army vip passenger hov taxi bus coach delivery truck trailer motorcycle evehicle custom1 custom2" speed="22.22" length="3.39" shape="9515.83,13013.57 9513.17,13015.66"/>
        <lane id=":3092747274_0_1" index="1" allow="private emergency authority army vip passenger hov taxi bus coach delivery truck trailer motorcycle evehicle custom1 custom2" speed="22.22" length="3.39" shape="9513.85,13011.05 9511.19,13013.14"/>
        <lane id=":3092747274_0_2" index="2" allow="private emergency authority army vip passenger hov taxi bus coach delivery truck trailer motorcycle evehicle custom1 custom2" speed="22.22" length="3.39" shape="9511.88,13008.53 9509.22,13010.62"/>
    </edge>
    <edge id=":3092747274_3" function="internal">
        <lane id=":3092747274_3_0" index="0" allow="private emergency authority army vip passenger hov taxi bus coach delivery truck trailer motorcycle evehicle custom1 custom2" speed="22.22" length="3.39" shape="9517.68,13015.93 9516.95,13016.63 9516.45,13017.10 9515.93,13017.55 9515.14,13018.18"/>
    </edge>
    <edge id=":3092747279_0" function="internal">
        <lane id=":3092747279_0_0" index="0" allow="private emergency authority army vip passenger hov taxi bus coach delivery truck trailer motorcycle evehicle custom1 custom2" speed="22.22" length="3.16" shape="9610.02,12946.82 9609.26,12947.37 9608.75,12947.76 9608.26,12948.18 9607.56,12948.80"/>
    </edge>
    <edge id=":3092747279_1" function="internal">
        <lane id=":3092747279_1_0" index="0" allow="private emergency authority army vip passenger hov taxi bus coach delivery truck trailer motorcycle evehicle custom1 custom2" speed="22.22" length="3.29" shape="9608.14,12944.23 9605.53,12946.16"/>
        <lane id=":3092747279_1_1" index="1" allow="private emergency authority army vip passenger hov taxi bus coach delivery truck trailer motorcycle evehicle custom1 custom2" speed="22.22" length="3.29" shape="9606.26,12941.64 9603.61,12943.59"/>
        <lane id=":3092747279_1_2" index="2" allow="private emergency authority army vip passenger hov taxi bus coach delivery truck trailer motorcycle evehicle custom1 custom2" speed="22.22" length="3.29" shape="9604.39,12939.05 9601.70,12941.03"/>
    </edge>
    <edge id=":35006697-AddedOnRampNode_0" function="internal">
        <lane id=":35006697-AddedOnRampNode_0_0" index="0" allow="private emergency authority army vip passenger hov taxi bus coach delivery truck trailer motorcycle evehicle custom1 custom2" speed="22.22" length="8.00" shape="9438.95,13074.25 9432.78,13079.33"/>
        <lane id=":35006697-AddedOnRampNode_0_1" index="1" allow="private emergency authority army vip passenger hov taxi bus coach delivery truck trailer motorcycle evehicle custom1 custom2" speed="22.22" length="8.00" shape="9436.92,13071.78 9430.74,13076.86"/>
        <lane id=":35006697-AddedOnRampNode_0_2" index="2" allow="private emergency authority army vip passenger hov taxi bus coach delivery truck trailer motorcycle evehicle custom1 custom2" speed="22.22" length="8.00" shape="9434.89,13069.30 9428.71,13074.39"/>
    </edge>
    <edge id=":409118177_0" function="internal">
        <lane id=":409118177_0_0" index="0" allow="private emergency authority army vip passenger hov taxi bus coach delivery truck trailer motorcycle evehicle custom1 custom2" speed="22.22" length="3.07" shape="9479.80,13012.99 9482.14,13010.99"/>
    </edge>
    <edge id=":409118177_1" function="internal">
        <lane id=":409118177_1_0" index="0" allow="private emergency authority army vip passenger hov taxi bus coach delivery truck trailer motorcycle evehicle custom1 custom2" speed="22.22" length="3.22" shape="9481.83,13015.47 9484.42,13013.41"/>
        <lane id=":409118177_1_1" index="1" allow="private emergency authority army vip passenger hov taxi bus coach delivery truck trailer motorcycle evehicle custom1 custom2" speed="22.22" length="3.22" shape="9483.86,13017.95 9486.37,13015.95"/>
        <lane id=":409118177_1_2" index="2" allow="private emergency authority army vip passenger hov taxi bus coach delivery truck trailer motorcycle evehicle custom1 custom2" speed="22.22" length="3.22" shape="9485.88,13020.42 9488.33,13018.48"/>
    </edge>
    <edge id=":444023189_0" function="internal">
        <lane id=":444023189_0_0" index="0" allow="private emergency authority army vip passenger hov taxi bus coach delivery truck trailer motorcycle evehicle custom1 custom2" speed="22.22" length="8.19" shape="9670.71,12898.81 9669.02,12900.70 9668.43,12902.51 9667.83,12904.31 9666.12,12906.16"/>
        <lane id=":444023189_0_1" index="1" allow="private emergency authority army vip passenger hov taxi bus coach delivery truck trailer motorcycle evehicle custom1 custom2" speed="22.22" length="8.19" shape="9670.71,12898.81 9664.24,12903.57"/>
        <lane id=":444023189_0_2" index="2" allow="private emergency authority army vip passenger hov taxi bus coach delivery truck trailer motorcycle evehicle custom1 custom2" speed="22.22" length="8.19" shape="9668.79,12896.25 9662.37,12900.98"/>
        <lane id=":444023189_0_3" index="3" allow="private emergency authority army vip passenger hov taxi bus coach delivery truck trailer motorcycle evehicle custom1 custom2" speed="22.22" length="8.19" shape="9666.87,12893.69 9660.49,12898.39"/>
    </edge>
    <edge id=":4464130485_0" function="internal">
        <lane id=":4464130485_0_0" index="0" allow="private emergency authority army vip passenger hov taxi bus coach delivery truck trailer motorcycle evehicle custom1 custom2" speed="25.00" length="2.92" shape="9656.53,12948.33 9655.62,12945.56"/>
    </edge>
    <edge id=":4464130485_1" function="internal">
        <lane id=":4464130485_1_0" index="0" disallow="tram rail_urban rail rail_electric rail_fast ship" speed="27.78" length="3.10" shape="9658.03,12947.76 9657.96,12946.87 9658.32,12946.24 9658.70,12945.59 9658.70,12944.68"/>
        <lane id=":4464130485_1_1" index="1" disallow="tram rail_urban rail rail_electric rail_fast ship" speed="27.78" length="3.10" shape="9661.03,12946.63 9661.77,12943.80"/>
    </edge>
    <edge id=":4720708100_0" function="internal">
        <lane id=":4720708100_0_0" index="0" allow="private emergency authority army vip passenger hov taxi bus coach delivery truck trailer motorcycle evehicle custom1 custom2" speed="22.22" length="0.29" shape="9428.19,13054.43 9428.46,13054.22"/>
        <lane id=":4720708100_0_1" index="1" allow="private emergency authority army vip passenger hov taxi bus coach delivery truck trailer motorcycle evehicle custom1 custom2" speed="22.22" length="0.29" shape="9430.21,13056.91 9430.45,13056.72"/>
        <lane id=":4720708100_0_2" index="2" allow="private emergency authority army vip passenger hov taxi bus coach delivery truck trailer motorcycle evehicle custom1 custom2" speed="22.22" length="0.29" shape="9432.22,13059.40 9432.44,13059.23"/>
        <lane id=":4720708100_0_3" index="3" allow="private emergency authority army vip passenger hov taxi bus coach delivery truck trailer motorcycle evehicle custom1 custom2" speed="22.22" length="0.29" shape="9434.24,13061.88 9434.43,13061.73"/>
    </edge>
    <edge id=":4731670867_0" function="internal">
        <lane id=":4731670867_0_0" index="0" disallow="tram rail_urban rail rail_electric rail_fast ship" speed="27.78" length="8.17" shape="9650.34,12918.48 9649.35,12916.31 9648.32,12914.99 9647.27,12913.69 9646.21,12911.55"/>
        <lane id=":4731670867_0_1" index="1" disallow="tram rail_urban rail rail_electric rail_fast ship" speed="27.78" length="8.17" shape="9653.37,12917.47 9652.38,12915.27 9651.34,12913.93 9650.28,12912.60 9649.21,12910.43"/>
    </edge>
    <edge id=":4731670868_0" function="internal">
        <lane id=":4731670868_0_0" index="0" disallow="tram rail_urban rail rail_electric rail_fast ship" speed="27.78" length="7.97" shape="9659.64,12907.32 9662.22,12914.90"/>
        <lane id=":4731670868_0_1" index="1" disallow="tram rail_urban rail rail_electric rail_fast ship" speed="27.78" length="7.97" shape="9656.62,12908.38 9659.18,12915.90"/>
    </edge>
    <edge id=":478886777-AddedOffRampNode_0" function="internal">
        <lane id=":478886777-AddedOffRampNode_0_0" index="0" allow="private emergency authority army vip passenger hov taxi bus coach delivery truck trailer motorcycle evehicle custom1 custom2" speed="22.22" length="8.20" shape="9402.13,13079.74 9403.72,13077.80 9404.22,13075.98 9404.72,13074.15 9406.32,13072.21"/>
        <lane id=":478886777-AddedOffRampNode_0_1" index="1" allow="private emergency authority army vip passenger hov taxi bus coach delivery truck trailer motorcycle evehicle custom1 custom2" speed="22.22" length="8.20" shape="9402.13,13079.74 9408.33,13074.69"/>
        <lane id=":478886777-AddedOffRampNode_0_2" index="2" allow="private emergency authority army vip passenger hov taxi bus coach delivery truck trailer motorcycle evehicle custom1 custom2" speed="22.22" length="8.20" shape="9404.15,13082.22 9410.35,13077.18"/>
        <lane id=":478886777-AddedOffRampNode_0_3" index="3" allow="private emergency authority army vip passenger hov taxi bus coach delivery truck trailer motorcycle evehicle custom1 custom2" speed="22.22" length="8.20" shape="9406.17,13084.71 9412.37,13079.66"/>
    </edge>
    <edge id=":5307607945_0" function="internal">
        <lane id=":5307607945_0_0" index="0" disallow="tram rail_urban rail rail_electric rail_fast ship" speed="27.78" length="8.00" shape="9597.11,12765.29 9594.83,12757.62"/>
        <lane id=":5307607945_0_1" index="1" disallow="tram rail_urban rail rail_electric rail_fast ship" speed="27.78" length="8.00" shape="9600.17,12764.38 9597.90,12756.71"/>
    </edge>
    <edge id=":5307690016_0" function="internal">
        <lane id=":5307690016_0_0" index="0" disallow="tram rail_urban rail rail_electric rail_fast ship" speed="27.78" length="8.21" shape="9663.24,13083.39 9665.28,13082.10 9666.48,13080.90 9667.67,13079.70 9669.71,13078.42"/>