<?xml version="1.0" encoding="UTF-8"?>

<!-- generated on 2023-03-21 13:57:42 by Eclipse SUMO netedit Version 1.15.0
<configuration xmlns:xsi="http://www.w3.org/2001/XMLSchema-instance" xsi:noNamespaceSchemaLocation="http://sumo.dlr.de/xsd/netconvertConfiguration.xsd">

    <input>
        <sumo-net-file value="C:\Users\Paulinho\Desktop\Master-Thesis\nodes\no_avenida25abril.net.xml"/>
    </input>

    <output>
        <output-file value="C:\Users\Paulinho\Desktop\Master-Thesis\nodes\no_avenida25abril.net.xml"/>
        <output.street-names value="true"/>
    </output>

    <processing>
        <geometry.min-radius.fix.railways value="false"/>
        <geometry.max-grade.fix value="false"/>
        <offset.disable-normalization value="true"/>
        <lefthand value="0"/>
    </processing>

    <junctions>
        <no-turnarounds value="true"/>
        <junctions.corner-detail value="5"/>
        <junctions.limit-turn-speed value="5.50"/>
        <rectangular-lane-cut value="0"/>
    </junctions>

    <pedestrian>
        <walkingareas value="0"/>
    </pedestrian>

    <netedit>
        <additional-files value="C:\Users\Paulinho\Desktop\Master-Thesis\nodes\no_avenida25abril_poi.xml"/>
    </netedit>

</configuration>
-->

<net version="1.9" junctionCornerDetail="5" limitTurnSpeed="5.50" xmlns:xsi="http://www.w3.org/2001/XMLSchema-instance" xsi:noNamespaceSchemaLocation="http://sumo.dlr.de/xsd/net_file.xsd">

    <location netOffset="-524914.43,-4544541.91" convBoundary="10051.44,11182.13,10313.38,11702.35" origBoundary="-8.702913,41.051318,-8.236192,41.279522" projParameter="+proj=utm +zone=29 +ellps=WGS84 +datum=WGS84 +units=m +no_defs"/>

    <type id="highway.bridleway" priority="1" numLanes="1" speed="2.78" allow="pedestrian" oneway="1" width="2.00"/>
    <type id="highway.bus_guideway" priority="1" numLanes="1" speed="27.78" allow="bus" oneway="1"/>
    <type id="highway.cycleway" priority="1" numLanes="1" speed="5.56" allow="bicycle" oneway="0" width="1.00"/>
    <type id="highway.footway" priority="1" numLanes="1" speed="2.78" allow="pedestrian" oneway="1" width="2.00"/>
    <type id="highway.ford" priority="1" numLanes="1" speed="2.78" allow="army" oneway="0"/>
    <type id="highway.living_street" priority="2" numLanes="1" speed="2.78" disallow="tram rail_urban rail rail_electric rail_fast ship" oneway="0"/>
    <type id="highway.motorway" priority="14" numLanes="2" speed="39.44" allow="private emergency authority army vip passenger hov taxi bus coach delivery truck trailer motorcycle evehicle custom1 custom2" oneway="1"/>
    <type id="highway.motorway_link" priority="9" numLanes="1" speed="22.22" allow="private emergency authority army vip passenger hov taxi bus coach delivery truck trailer motorcycle evehicle custom1 custom2" oneway="1"/>
    <type id="highway.path" priority="1" numLanes="1" speed="5.56" allow="pedestrian bicycle" oneway="0" width="2.00"/>
    <type id="highway.pedestrian" priority="1" numLanes="1" speed="2.78" allow="pedestrian" oneway="1" width="2.00"/>
    <type id="highway.primary" priority="12" numLanes="2" speed="27.78" disallow="tram rail_urban rail rail_electric rail_fast ship" oneway="0"/>
    <type id="highway.primary_link" priority="7" numLanes="1" speed="22.22" disallow="tram rail_urban rail rail_electric rail_fast ship" oneway="0"/>
    <type id="highway.raceway" priority="15" numLanes="2" speed="83.33" allow="vip" oneway="0"/>
    <type id="highway.residential" priority="3" numLanes="1" speed="13.89" disallow="tram rail_urban rail rail_electric rail_fast ship" oneway="0"/>
    <type id="highway.secondary" priority="11" numLanes="1" speed="27.78" disallow="tram rail_urban rail rail_electric rail_fast ship" oneway="0"/>
    <type id="highway.secondary_link" priority="6" numLanes="1" speed="22.22" disallow="tram rail_urban rail rail_electric rail_fast ship" oneway="0"/>
    <type id="highway.service" priority="1" numLanes="1" speed="5.56" allow="pedestrian delivery bicycle" oneway="0"/>
    <type id="highway.stairs" priority="1" numLanes="1" speed="1.39" allow="pedestrian" oneway="1" width="2.00"/>
    <type id="highway.step" priority="1" numLanes="1" speed="1.39" allow="pedestrian" oneway="1" width="2.00"/>
    <type id="highway.steps" priority="1" numLanes="1" speed="1.39" allow="pedestrian" oneway="1" width="2.00"/>
    <type id="highway.tertiary" priority="10" numLanes="1" speed="22.22" disallow="tram rail_urban rail rail_electric rail_fast ship" oneway="0"/>
    <type id="highway.tertiary_link" priority="5" numLanes="1" speed="22.22" disallow="tram rail_urban rail rail_electric rail_fast ship" oneway="0"/>
    <type id="highway.track" priority="1" numLanes="1" speed="5.56" allow="pedestrian motorcycle moped bicycle" oneway="0"/>
    <type id="highway.trunk" priority="13" numLanes="2" speed="27.78" disallow="pedestrian bicycle tram rail_urban rail rail_electric rail_fast ship" oneway="0"/>
    <type id="highway.trunk_link" priority="8" numLanes="1" speed="22.22" disallow="pedestrian bicycle tram rail_urban rail rail_electric rail_fast ship" oneway="0"/>
    <type id="highway.unclassified" priority="4" numLanes="1" speed="13.89" disallow="tram rail_urban rail rail_electric rail_fast ship" oneway="0"/>
    <type id="highway.unsurfaced" priority="1" numLanes="1" speed="8.33" disallow="tram rail_urban rail rail_electric rail_fast ship" oneway="0"/>
    <type id="railway.highspeed" priority="21" numLanes="1" speed="69.44" allow="rail_fast" oneway="1"/>
    <type id="railway.light_rail" priority="19" numLanes="1" speed="27.78" allow="rail_urban" oneway="1"/>
    <type id="railway.preserved" priority="16" numLanes="1" speed="27.78" allow="rail" oneway="1"/>
    <type id="railway.rail" priority="20" numLanes="1" speed="44.44" allow="rail" oneway="1"/>
    <type id="railway.subway" priority="18" numLanes="1" speed="27.78" allow="rail_urban" oneway="1"/>
    <type id="railway.tram" priority="17" numLanes="1" speed="13.89" allow="tram" oneway="1"/>

    <edge id=":25507576_0" function="internal">
        <lane id=":25507576_0_0" index="0" allow="private emergency authority army vip passenger hov taxi bus coach delivery truck trailer motorcycle evehicle custom1 custom2" speed="22.22" length="2.60" shape="10104.67,11409.49 10105.73,11407.12"/>
    </edge>
    <edge id=":25507576_1" function="internal">
        <lane id=":25507576_1_0" index="0" allow="private emergency authority army vip passenger hov taxi bus coach delivery truck trailer motorcycle evehicle custom1 custom2" speed="22.22" length="3.05" shape="10107.56,11410.88 10108.80,11408.40"/>
        <lane id=":25507576_1_1" index="1" allow="private emergency authority army vip passenger hov taxi bus coach delivery truck trailer motorcycle evehicle custom1 custom2" speed="22.22" length="3.05" shape="10110.44,11412.27 10111.77,11409.63"/>
        <lane id=":25507576_1_2" index="2" allow="private emergency authority army vip passenger hov taxi bus coach delivery truck trailer motorcycle evehicle custom1 custom2" speed="22.22" length="3.05" shape="10113.32,11413.66 10114.74,11410.86"/>
        <lane id=":25507576_1_3" index="3" allow="private emergency authority army vip passenger hov taxi bus coach delivery truck trailer motorcycle evehicle custom1 custom2" speed="22.22" length="3.05" shape="10116.20,11415.05 10117.70,11412.08"/>
    </edge>
    <edge id=":25507578_0" function="internal">
        <lane id=":25507578_0_0" index="0" allow="private emergency authority army vip passenger hov taxi bus coach delivery truck trailer motorcycle evehicle custom1 custom2" speed="22.22" length="0.70" shape="10167.43,11310.01 10167.64,11309.71 10167.79,11309.51 10167.94,11309.32 10168.18,11309.04"/>
        <lane id=":25507578_0_1" index="1" allow="private emergency authority army vip passenger hov taxi bus coach delivery truck trailer motorcycle evehicle custom1 custom2" speed="22.22" length="0.70" shape="10170.07,11311.83 10170.21,11311.61 10170.32,11311.47 10170.43,11311.33 10170.60,11311.14"/>
        <lane id=":25507578_0_2" index="2" allow="private emergency authority army vip passenger hov taxi bus coach delivery truck trailer motorcycle evehicle custom1 custom2" speed="22.22" length="0.70" shape="10172.70,11313.65 10172.79,11313.52 10172.85,11313.43 10172.92,11313.35 10173.02,11313.23"/>
        <lane id=":25507578_0_3" index="3" allow="private emergency authority army vip passenger hov taxi bus coach delivery truck trailer motorcycle evehicle custom1 custom2" speed="22.22" length="0.70" shape="10175.33,11315.47 10175.36,11315.43 10175.38,11315.40 10175.40,11315.37 10175.44,11315.33"/>
    </edge>
    <edge id=":414134063_0" function="internal">
        <lane id=":414134063_0_0" index="0" disallow="tram rail_urban rail rail_electric rail_fast ship" speed="22.22" length="8.88" shape="10063.52,11346.64 10061.57,11344.90 10059.86,11344.03 10058.32,11343.05 10056.86,11340.99"/>
    </edge>
    <edge id=":414134063_1" function="internal">
        <lane id=":414134063_1_0" index="0" disallow="tram rail_urban rail rail_electric rail_fast ship" speed="9.57" length="7.53" shape="10059.73,11339.57 10060.88,11341.36 10062.09,11342.26 10063.64,11342.79 10065.77,11343.51"/>
    </edge>
    <edge id=":414134066_0" function="internal">
        <lane id=":414134066_0_0" index="0" allow="private emergency authority army vip passenger hov taxi bus coach delivery truck trailer motorcycle evehicle custom1 custom2" speed="22.22" length="43.65" shape="10088.89,11345.96 10096.47,11342.76 10108.75,11336.86 10120.83,11330.60 10127.83,11326.35"/>
    </edge>
    <edge id=":414134066_1" function="internal">
        <lane id=":414134066_1_0" index="0" disallow="tram rail_urban rail rail_electric rail_fast ship" speed="22.22" length="43.97" shape="10088.89,11345.96 10095.25,11343.04 10105.70,11338.04 10118.05,11333.46 10130.15,11331.77"/>
    </edge>
    <edge id=":414134066_2" function="internal">
        <lane id=":414134066_2_0" index="0" allow="private emergency authority army vip passenger hov taxi bus coach delivery truck trailer motorcycle evehicle custom1 custom2" speed="22.22" length="44.20" shape="10091.20,11350.58 10100.08,11342.11 10111.38,11335.13 10121.75,11329.81 10127.83,11326.35"/>
    </edge>
    <edge id=":414134066_3" function="internal">
        <lane id=":414134066_3_0" index="0" disallow="tram rail_urban rail rail_electric rail_fast ship" speed="18.47" length="44.16" shape="10091.20,11350.58 10099.04,11341.87 10108.14,11335.84 10118.51,11332.47 10130.15,11331.77"/>
        <lane id=":414134066_3_1" index="1" disallow="tram rail_urban rail rail_electric rail_fast ship" speed="18.26" length="44.16" shape="10093.03,11353.52 10100.71,11344.96 10109.61,11339.03 10119.71,11335.71 10131.02,11335.02"/>
        <lane id=":414134066_3_2" index="2" disallow="tram rail_urban rail rail_electric rail_fast ship" speed="18.05" length="44.16" shape="10094.85,11356.46 10102.39,11348.05 10111.07,11342.22 10120.91,11338.96 10131.90,11338.27"/>
    </edge>
    <edge id=":414134077_0" function="internal">
        <lane id=":414134077_0_0" index="0" disallow="tram rail_urban rail rail_electric rail_fast ship" speed="25.00" length="11.51" shape="10186.48,11401.09 10186.02,11404.54 10186.12,11407.03 10186.56,11409.40 10187.14,11412.47"/>
    </edge>
    <edge id=":414134077_1" function="internal">
        <lane id=":414134077_1_0" index="0" disallow="tram rail_urban rail rail_electric rail_fast ship" speed="22.22" length="11.52" shape="10186.48,11401.09 10185.61,11404.50 10184.61,11406.72 10183.36,11408.85 10181.76,11412.04"/>
        <lane id=":414134077_1_1" index="1" disallow="tram rail_urban rail rail_electric rail_fast ship" speed="22.22" length="11.52" shape="10183.34,11400.49 10182.49,11403.77 10181.50,11405.88 10180.28,11407.92 10178.73,11410.97"/>
        <lane id=":414134077_1_2" index="2" disallow="tram rail_urban rail rail_electric rail_fast ship" speed="22.22" length="11.52" shape="10180.19,11399.90 10179.37,11403.03 10178.40,11405.05 10177.20,11406.99 10175.70,11409.91"/>
    </edge>
    <edge id=":414134080_0" function="internal">
        <lane id=":414134080_0_0" index="0" allow="private emergency authority army vip passenger hov taxi bus coach delivery truck trailer motorcycle evehicle custom1 custom2" speed="10.24" length="6.40" shape="10147.48,11439.79 10145.82,11440.59 10144.86,11441.45 10144.12,11442.59 10143.11,11444.22"/>
    </edge>
    <edge id=":414134080_1" function="internal">
        <lane id=":414134080_1_0" index="0" disallow="tram rail_urban rail rail_electric rail_fast ship" speed="22.22" length="6.26" shape="10147.48,11439.79 10145.58,11440.36 10144.21,11440.50 10142.81,11440.54 10140.82,11440.82"/>
        <lane id=":414134080_1_1" index="1" disallow="tram rail_urban rail rail_electric rail_fast ship" speed="22.22" length="6.26" shape="10146.33,11436.80 10144.57,11437.32 10143.30,11437.43 10142.00,11437.44 10140.16,11437.69"/>
        <lane id=":414134080_1_2" index="2" disallow="tram rail_urban rail rail_electric rail_fast ship" speed="22.22" length="6.26" shape="10145.18,11433.82 10143.56,11434.28 10142.39,11434.35 10141.20,11434.34 10139.50,11434.56"/>
    </edge>
    <edge id=":414134087_0" function="internal">
        <lane id=":414134087_0_0" index="0" disallow="tram rail_urban rail rail_electric rail_fast ship" speed="16.49" length="10.00" shape="10078.19,11374.86 10078.16,11371.91 10077.88,11369.88 10077.18,11367.95 10075.90,11365.29"/>
    </edge>
    <edge id=":414134087_1" function="internal">
        <lane id=":414134087_1_0" index="0" disallow="tram rail_urban rail rail_electric rail_fast ship" speed="20.52" length="10.25" shape="10078.19,11374.86 10078.57,11371.77 10079.53,11369.80 10080.87,11367.92 10082.43,11365.09"/>
        <lane id=":414134087_1_1" index="1" disallow="tram rail_urban rail rail_electric rail_fast ship" speed="19.96" length="10.25" shape="10081.39,11374.89 10081.79,11371.99 10082.77,11370.17 10084.12,11368.43 10085.63,11365.78"/>
        <lane id=":414134087_1_2" index="2" disallow="tram rail_urban rail rail_electric rail_fast ship" speed="19.38" length="10.25" shape="10084.59,11374.92 10085.00,11372.21 10086.01,11370.54 10087.36,11368.94 10088.82,11366.46"/>
    </edge>
    <edge id=":414134148_0" function="internal">
        <lane id=":414134148_0_0" index="0" allow="private emergency authority army vip passenger hov taxi bus coach delivery truck trailer motorcycle evehicle custom1 custom2" speed="22.22" length="8.98" shape="10149.58,11305.75 10149.29,11303.28 10148.98,11301.59 10148.46,11299.96 10147.55,11297.64"/>
        <lane id=":414134148_0_1" index="1" allow="private emergency authority army vip passenger hov taxi bus coach delivery truck trailer motorcycle evehicle custom1 custom2" speed="22.22" length="8.98" shape="10149.58,11305.75 10149.76,11302.95 10150.51,11300.99 10151.04,11299.08 10150.52,11296.45"/>
    </edge>
    <edge id=":414952121_0" function="internal">
        <lane id=":414952121_0_0" index="0" disallow="tram rail_urban rail rail_electric rail_fast ship" speed="8.52" length="6.41" shape="10171.83,11430.44 10170.02,11430.00 10168.70,11429.98 10167.42,11430.38 10165.75,11431.25"/>
    </edge>
    <edge id=":414952121_1" function="internal">
        <lane id=":414952121_1_0" index="0" disallow="tram rail_urban rail rail_electric rail_fast ship" speed="22.22" length="6.15" shape="10170.53,11426.61 10169.11,11428.00 10168.27,11429.12 10167.37,11430.14 10165.75,11431.25"/>
        <lane id=":414952121_1_1" index="1" disallow="tram rail_urban rail rail_electric rail_fast ship" speed="22.22" length="6.15" shape="10168.52,11424.13 10167.22,11425.40 10166.48,11426.46 10165.68,11427.42 10164.22,11428.44"/>
        <lane id=":414952121_1_2" index="2" disallow="tram rail_urban rail rail_electric rail_fast ship" speed="22.22" length="6.15" shape="10166.50,11421.64 10165.34,11422.81 10164.70,11423.79 10164.00,11424.70 10162.68,11425.64"/>
    </edge>
    <edge id=":4974750963_0" function="internal">
        <lane id=":4974750963_0_0" index="0" allow="private emergency authority army vip passenger hov taxi bus coach delivery truck trailer motorcycle evehicle custom1 custom2" speed="22.22" length="0.34" shape="10214.96,11294.54 10214.91,11294.60"/>
        <lane id=":4974750963_0_1" index="1" allow="private emergency authority army vip passenger hov taxi bus coach delivery truck trailer motorcycle evehicle custom1 custom2" speed="22.22" length="0.34" shape="10212.61,11292.37 10212.44,11292.57"/>
        <lane id=":4974750963_0_2" index="2" allow="private emergency authority army vip passenger hov taxi bus coach delivery truck trailer motorcycle evehicle custom1 custom2" speed="22.22" length="0.34" shape="10210.25,11290.21 10209.97,11290.54"/>
        <lane id=":4974750963_0_3" index="3" allow="private emergency authority army vip passenger hov taxi bus coach delivery truck trailer motorcycle evehicle custom1 custom2" speed="22.22" length="0.34" shape="10207.89,11288.05 10207.49,11288.50"/>
    </edge>
    <edge id=":787318149_0" function="internal">
        <lane id=":787318149_0_0" index="0" allow="private emergency authority army vip passenger hov taxi bus coach delivery truck trailer motorcycle evehicle custom1 custom2" speed="18.05" length="5.55" shape="10278.09,11230.43 10276.92,11231.59 10276.07,11232.32 10275.16,11233.00 10273.84,11233.98"/>
    </edge>
    <edge id=":787318149_1" function="internal">
        <lane id=":787318149_1_0" index="0" allow="private emergency authority army vip passenger hov taxi bus coach delivery truck trailer motorcycle evehicle custom1 custom2" speed="22.22" length="4.31" shape="10275.78,11228.21 10272.31,11231.95"/>
        <lane id=":787318149_1_1" index="1" allow="private emergency authority army vip passenger hov taxi bus coach delivery truck trailer motorcycle evehicle custom1 custom2" speed="22.22" length="4.31" shape="10273.47,11225.99 10270.36,11229.34"/>
        <lane id=":787318149_1_2" index="2" allow="private emergency authority army vip passenger hov taxi bus coach delivery truck trailer motorcycle evehicle custom1 custom2" speed="22.22" length="4.31" shape="10271.17,11223.77 10268.40,11226.74"/>
        <lane id=":787318149_1_3" index="3" allow="private emergency authority army vip passenger hov taxi bus coach delivery truck trailer motorcycle evehicle custom1 custom2" speed="22.22" length="4.31" shape="10268.86,11221.56 10266.45,11224.14"/>
    </edge>
    <edge id=":787318152_0" function="internal">
        <lane id=":787318152_0_0" index="0" allow="private emergency authority army vip passenger hov taxi bus coach delivery truck trailer motorcycle evehicle custom1 custom2" speed="18.05" length="9.15" shape="10190.27,11368.66 10189.38,11371.22 10188.87,11373.02 10188.62,11374.86 10188.49,11377.57"/>
    </edge>
    <edge id=":787318152_1" function="internal">
        <lane id=":787318152_1_0" index="0" disallow="tram rail_urban rail rail_electric rail_fast ship" speed="22.22" length="9.24" shape="10185.00,11368.35 10186.02,11371.13 10187.21,11372.92 10188.17,11374.73 10188.49,11377.57"/>
        <lane id=":787318152_1_1" index="1" disallow="tram rail_urban rail rail_electric rail_fast ship" speed="22.22" length="9.24" shape="10181.88,11369.06 10182.85,11371.60 10184.01,11373.22 10184.96,11374.86 10185.30,11377.46"/>
        <lane id=":787318152_1_2" index="2" disallow="tram rail_urban rail rail_electric rail_fast ship" speed="22.22" length="9.24" shape="10178.75,11369.76 10179.68,11372.07 10180.82,11373.52 10181.76,11374.99 10182.10,11377.36"/>
    </edge>
    <edge id=":cluster_414134158_4753795450_4753795454_9895669816_0" function="internal">
        <lane id=":cluster_414134158_4753795450_4753795454_9895669816_0_0" index="0" allow="private emergency authority army vip passenger hov taxi bus coach delivery truck trailer motorcycle evehicle custom1 custom2" speed="11.74" length="29.50" shape="10141.77,11283.19 10137.40,11274.47 10132.46,11268.78 10126.95,11266.12 10120.87,11266.48"/>
    </edge>
    <edge id=":cluster_414134158_4753795450_4753795454_9895669816_1" function="internal">
        <lane id=":cluster_414134158_4753795450_4753795454_9895669816_1_0" index="0" allow="private emergency authority army vip passenger hov taxi bus coach delivery truck trailer motorcycle evehicle custom1 custom2" speed="18.05" length="30.54" shape="10144.75,11282.01 10140.82,11274.68 10135.79,11267.23 10131.43,11260.58 10129.48,11255.66"/>
    </edge>
    <edge id=":cluster_414134158_4753795450_4753795454_9895669816_2" function="internal">
        <lane id=":cluster_414134158_4753795450_4753795454_9895669816_2_0" index="0" disallow="tram rail_urban rail rail_electric rail_fast ship" speed="8.51" length="13.10" shape="10119.97,11263.42 10124.20,11261.86 10127.20,11260.04 10128.96,11257.98 10129.48,11255.66"/>
    </edge>

    <edge id="-1081106122" from="414134063" to="cluster_414134158_4753795450_4753795454_9895669816" priority="10" type="highway.tertiary" shape="10058.47,11340.63 10055.04,11333.69 10051.57,11321.56 10051.44,11309.22 10058.39,11297.63 10076.35,11285.95 10094.75,11275.98 10112.81,11267.20 10120.42,11264.95">
        <lane id="-1081106122_0" index="0" disallow="tram rail_urban rail rail_electric rail_fast ship" speed="22.22" length="119.01" shape="10056.86,11340.99 10053.54,11334.27 10049.97,11321.79 10049.84,11308.78 10057.21,11296.49 10075.53,11284.57 10094.02,11274.56 10112.23,11265.70 10119.97,11263.42">
            <param key="origId" value="1081106122"/>
        </lane>
        <param key="origTo" value="4753795454"/>
    </edge>
    <edge id="1070035546" from="787318152" to="414134077" priority="6" type="highway.secondary_link" spreadType="center" shape="10185.10,11383.40 10184.79,11392.81 10183.83,11397.88">
        <lane id="1070035546_0" index="0" disallow="tram rail_urban rail rail_electric rail_fast ship" speed="22.22" length="23.18" shape="10188.49,11377.57 10187.98,11393.16 10186.48,11401.09">
            <param key="origId" value="1070035546"/>
        </lane>
        <lane id="1070035546_1" index="1" disallow="tram rail_urban rail rail_electric rail_fast ship" speed="22.22" length="23.18" shape="10185.30,11377.46 10184.79,11392.81 10183.34,11400.49">
            <param key="origId" value="1070035546"/>
        </lane>
        <lane id="1070035546_2" index="2" disallow="tram rail_urban rail rail_electric rail_fast ship" speed="22.22" length="23.18" shape="10182.10,11377.36 10181.60,11392.46 10180.19,11399.90">
            <param key="origId" value="1070035546"/>
        </lane>
    </edge>
    <edge id="1070241943" from="414134066" to="787318152" priority="6" type="highway.secondary_link" spreadType="center" shape="10111.15,11339.36 10127.37,11334.83 10144.18,11335.70 10159.84,11341.87 10172.70,11352.69 10181.42,11367.03 10185.10,11383.40">
        <lane id="1070241943_0" index="0" disallow="tram rail_urban rail rail_electric rail_fast ship" speed="22.22" length="65.67" shape="10130.15,11331.77 10144.87,11332.53 10161.50,11339.08 10175.16,11350.58 10184.43,11365.82 10185.00,11368.35">
            <param key="origId" value="1070241943"/>
        </lane>
        <lane id="1070241943_1" index="1" disallow="tram rail_urban rail rail_electric rail_fast ship" speed="22.22" length="65.67" shape="10131.02,11335.02 10144.18,11335.70 10159.84,11341.87 10172.70,11352.69 10181.42,11367.03 10181.88,11369.06">
            <param key="origId" value="1070241943"/>
        </lane>
        <lane id="1070241943_2" index="2" disallow="tram rail_urban rail rail_electric rail_fast ship" speed="22.22" length="65.67" shape="10131.90,11338.27 10143.49,11338.87 10158.18,11344.66 10170.24,11354.80 10178.41,11368.24 10178.75,11369.76">
            <param key="origId" value="1070241943"/>
        </lane>
    </edge>
    <edge id="1070241944" from="414134077" to="414952121" priority="6" type="highway.secondary_link" spreadType="center" shape="10183.83,11397.88 10181.12,11405.60 10177.82,11413.01 10170.46,11422.55 10161.08,11430.16">
        <lane id="1070241944_0" index="0" disallow="tram rail_urban rail rail_electric rail_fast ship" speed="22.22" length="16.78" shape="10181.76,11412.04 10180.59,11414.66 10172.77,11424.80 10170.53,11426.61">
            <param key="origId" value="1070241944"/>
        </lane>
        <lane id="1070241944_1" index="1" disallow="tram rail_urban rail rail_electric rail_fast ship" speed="22.22" length="16.78" shape="10178.73,11410.97 10177.82,11413.01 10170.46,11422.55 10168.52,11424.13">
            <param key="origId" value="1070241944"/>
        </lane>
        <lane id="1070241944_2" index="2" disallow="tram rail_urban rail rail_electric rail_fast ship" speed="22.22" length="16.78" shape="10175.70,11409.91 10175.05,11411.36 10168.15,11420.30 10166.50,11421.64">
            <param key="origId" value="1070241944"/>
        </lane>
    </edge>
    <edge id="1081106122" from="cluster_414134158_4753795450_4753795454_9895669816" to="414134063" priority="10" type="highway.tertiary" shape="10120.42,11264.95 10112.81,11267.20 10094.75,11275.98 10076.35,11285.95 10058.39,11297.63 10051.44,11309.22 10051.57,11321.56 10055.04,11333.69 10058.47,11340.63">
        <lane id="1081106122_0" index="0" disallow="tram rail_urban rail rail_electric rail_fast ship" speed="22.22" length="113.36" shape="10120.87,11266.48 10113.39,11268.70 10095.48,11277.40 10077.17,11287.33 10059.57,11298.77 10053.04,11309.66 10053.17,11321.33 10056.54,11333.11 10059.73,11339.57">
            <param key="origId" value="1081106122"/>
        </lane>
        <param key="origFrom" value="4753795454"/>
    </edge>
    <edge id="29036532" from="25507576" to="25507578" name="Via de Cintura Interna" priority="14" type="highway.motorway" spreadType="center" shape="10112.43,11411.83 10134.70,11368.84 10152.62,11339.85 10171.58,11312.45">
        <lane id="29036532_0" index="0" allow="private emergency authority army vip passenger hov taxi bus coach delivery truck trailer motorcycle evehicle custom1 custom2" speed="22.22" length="113.68" shape="10108.80,11408.40 10130.52,11366.47 10148.60,11337.22 10167.43,11310.01" changeLeft="authority">
            <param key="origId" value="29036532"/>
        </lane>
        <lane id="29036532_1" index="1" allow="private emergency authority army vip passenger hov taxi bus coach delivery truck trailer motorcycle evehicle custom1 custom2" speed="22.22" length="113.68" shape="10111.77,11409.63 10133.31,11368.05 10151.28,11338.97 10170.07,11311.83" changeRight="authority">
            <param key="origId" value="29036532"/>
        </lane>
        <lane id="29036532_2" index="2" allow="private emergency authority army vip passenger hov taxi bus coach delivery truck trailer motorcycle evehicle custom1 custom2" speed="22.22" length="113.68" shape="10114.74,11410.86 10136.09,11369.63 10153.96,11340.73 10172.70,11313.65">
            <param key="origId" value="29036532"/>
        </lane>
        <lane id="29036532_3" index="3" allow="private emergency authority army vip passenger hov taxi bus coach delivery truck trailer motorcycle evehicle custom1 custom2" speed="22.22" length="113.68" shape="10117.70,11412.08 10138.88,11371.21 10156.64,11342.48 10175.33,11315.47">
            <param key="origId" value="29036532"/>
        </lane>
        <param key="ref" value="IP 1"/>
    </edge>
    <edge id="35331289" from="414134063" to="414134066" priority="5" type="highway.tertiary_link" spreadType="center" shape="10058.47,11340.63 10072.14,11346.02 10078.50,11347.06 10083.32,11347.07 10088.16,11346.18 10111.15,11339.36">
        <lane id="35331289_0" index="0" disallow="tram rail_urban rail rail_electric rail_fast ship" speed="22.22" length="23.79" shape="10065.77,11343.51 10072.14,11346.02 10078.50,11347.06 10083.32,11347.07 10088.16,11346.18 10088.89,11345.96">
            <param key="origId" value="35331289"/>
        </lane>
    </edge>
    <edge id="35331290#0" from="414952121" to="414134080" priority="6" type="highway.secondary_link" spreadType="center" shape="10161.08,11430.16 10155.09,11433.44 10148.71,11435.89">
        <lane id="35331290#0_0" index="0" disallow="tram rail_urban rail rail_electric rail_fast ship" speed="22.22" length="19.79" shape="10165.75,11431.25 10156.44,11436.35 10147.48,11439.79">
            <param key="origId" value="35331290"/>
        </lane>
        <lane id="35331290#0_1" index="1" disallow="tram rail_urban rail rail_electric rail_fast ship" speed="22.22" length="19.79" shape="10164.22,11428.44 10155.09,11433.44 10146.33,11436.80">
            <param key="origId" value="35331290"/>
        </lane>
        <lane id="35331290#0_2" index="2" disallow="tram rail_urban rail rail_electric rail_fast ship" speed="22.22" length="19.79" shape="10162.68,11425.64 10153.74,11430.53 10145.18,11433.82">
            <param key="origId" value="35331290"/>
        </lane>
    </edge>
    <edge id="35331290#1" from="414134080" to="414134087" priority="6" type="highway.secondary_link" spreadType="center" shape="10148.71,11435.89 10138.95,11437.95 10128.96,11438.11 10113.63,11434.50 10100.08,11426.50 10089.56,11414.84 10083.02,11400.56 10081.23,11390.83 10081.33,11380.93">
        <lane id="35331290#1_0" index="0" disallow="tram rail_urban rail rail_electric rail_fast ship" speed="22.22" length="99.96" shape="10140.82,11440.82 10139.31,11441.14 10128.61,11441.32 10112.42,11437.50 10098.03,11429.01 10086.86,11416.62 10079.94,11401.53 10078.03,11391.11 10078.19,11374.86">
            <param key="origId" value="35331290"/>
        </lane>
        <lane id="35331290#1_1" index="1" disallow="tram rail_urban rail rail_electric rail_fast ship" speed="22.22" length="99.96" shape="10140.16,11437.69 10138.95,11437.95 10128.96,11438.11 10113.63,11434.50 10100.08,11426.50 10089.56,11414.84 10083.02,11400.56 10081.23,11390.83 10081.39,11374.89">
            <param key="origId" value="35331290"/>
        </lane>