<?xml version="1.0" encoding="UTF-8"?>

<!-- generated on 2023-04-06 16:53:10 by Eclipse SUMO netedit Version 1.15.0
<configuration xmlns:xsi="http://www.w3.org/2001/XMLSchema-instance" xsi:noNamespaceSchemaLocation="http://sumo.dlr.de/xsd/netconvertConfiguration.xsd">

    <input>
        <sumo-net-file value="C:\Users\Paulinho\Desktop\Master-Thesis\nodes\no_artigo.net.xml"/>
    </input>

    <output>
        <output-file value="C:\Users\Paulinho\Desktop\Master-Thesis\nodes\no_artigo.net.xml"/>
    </output>

    <processing>
        <geometry.min-radius.fix.railways value="false"/>
        <geometry.max-grade.fix value="false"/>
        <offset.disable-normalization value="true"/>
        <lefthand value="0"/>
    </processing>

    <junctions>
        <no-turnarounds value="true"/>
        <junctions.corner-detail value="5"/>
        <junctions.limit-turn-speed value="5.50"/>
        <rectangular-lane-cut value="0"/>
    </junctions>

    <pedestrian>
        <walkingareas value="0"/>
    </pedestrian>

</configuration>
-->

<net version="1.9" junctionCornerDetail="5" limitTurnSpeed="5.50" xmlns:xsi="http://www.w3.org/2001/XMLSchema-instance" xsi:noNamespaceSchemaLocation="http://sumo.dlr.de/xsd/net_file.xsd">

    <location netOffset="-271730.94,-5113911.27" convBoundary="2828.52,1552.91,5250.98,5729.46" origBoundary="6.041343,46.141805,6.170159,46.281435" projParameter="+proj=utm +zone=32 +ellps=WGS84 +datum=WGS84 +units=m +no_defs"/>

    <type id="highway.bridleway" priority="1" numLanes="1" speed="2.78" allow="pedestrian" oneway="1" width="2.00"/>
    <type id="highway.bus_guideway" priority="1" numLanes="1" speed="27.78" allow="bus" oneway="1"/>
    <type id="highway.cycleway" priority="1" numLanes="1" speed="8.33" allow="bicycle" oneway="1" width="1.00"/>
    <type id="highway.footway" priority="1" numLanes="1" speed="2.78" allow="pedestrian" oneway="1" width="2.00"/>
    <type id="highway.ford" priority="1" numLanes="1" speed="2.78" allow="army" oneway="1"/>
    <type id="highway.living_street" priority="2" numLanes="1" speed="2.78" disallow="tram rail_urban rail rail_electric rail_fast ship" oneway="1"/>
    <type id="highway.living_street|railway.tram" priority="17" numLanes="1" speed="13.89" disallow="rail_urban rail rail_electric rail_fast ship" oneway="1"/>
    <type id="highway.motorway" priority="14" numLanes="2" speed="33.33" allow="private emergency authority army vip passenger hov taxi bus coach delivery truck trailer motorcycle evehicle custom1 custom2" oneway="1"/>
    <type id="highway.motorway_link" priority="9" numLanes="2" speed="22.22" allow="private emergency authority army vip passenger hov taxi bus coach delivery truck trailer motorcycle evehicle custom1 custom2" oneway="1"/>
    <type id="highway.path" priority="1" numLanes="1" speed="2.78" allow="pedestrian bicycle" oneway="1" width="2.00"/>
    <type id="highway.pedestrian" priority="1" numLanes="1" speed="2.78" allow="pedestrian" oneway="1" width="2.00"/>
    <type id="highway.primary" priority="12" numLanes="2" speed="27.78" disallow="tram rail_urban rail rail_electric rail_fast ship" oneway="1"/>
    <type id="highway.primary_link" priority="7" numLanes="1" speed="22.22" disallow="tram rail_urban rail rail_electric rail_fast ship" oneway="1"/>
    <type id="highway.raceway" priority="15" numLanes="2" speed="83.33" allow="vip" oneway="1"/>
    <type id="highway.residential" priority="3" numLanes="1" speed="13.89" disallow="tram rail_urban rail rail_electric rail_fast ship" oneway="1"/>
    <type id="highway.residential|railway.tram" priority="17" numLanes="1" speed="13.89" disallow="rail_urban rail rail_electric rail_fast ship" oneway="1"/>
    <type id="highway.secondary" priority="11" numLanes="1" speed="27.78" disallow="tram rail_urban rail rail_electric rail_fast ship" oneway="1"/>
    <type id="highway.secondary_link" priority="6" numLanes="1" speed="22.22" disallow="tram rail_urban rail rail_electric rail_fast ship" oneway="1"/>
    <type id="highway.secondary|railway.tram" priority="17" numLanes="1" speed="27.78" disallow="rail_urban rail rail_electric rail_fast ship" oneway="1"/>
    <type id="highway.service" priority="1" numLanes="1" speed="5.56" allow="pedestrian delivery bicycle" oneway="1"/>
    <type id="highway.service|railway.tram" priority="17" numLanes="1" speed="13.89" allow="pedestrian delivery bicycle tram" oneway="1"/>
    <type id="highway.stairs" priority="1" numLanes="1" speed="1.39" allow="pedestrian" oneway="1" width="2.00"/>
    <type id="highway.step" priority="1" numLanes="1" speed="1.39" allow="pedestrian" oneway="1" width="2.00"/>
    <type id="highway.steps" priority="1" numLanes="1" speed="1.39" allow="pedestrian" oneway="1" width="2.00"/>
    <type id="highway.tertiary" priority="10" numLanes="1" speed="22.22" disallow="tram rail_urban rail rail_electric rail_fast ship" oneway="1"/>
    <type id="highway.tertiary_link" priority="5" numLanes="1" speed="22.22" disallow="tram rail_urban rail rail_electric rail_fast ship" oneway="1"/>
    <type id="highway.tertiary|railway.tram" priority="17" numLanes="1" speed="22.22" disallow="rail_urban rail rail_electric rail_fast ship" oneway="1"/>
    <type id="highway.track" priority="1" numLanes="1" speed="5.56" allow="pedestrian motorcycle moped bicycle" oneway="1"/>
    <type id="highway.trunk" priority="13" numLanes="2" speed="27.78" disallow="pedestrian bicycle tram rail_urban rail rail_electric rail_fast ship" oneway="1"/>
    <type id="highway.trunk_link" priority="8" numLanes="1" speed="22.22" disallow="pedestrian bicycle tram rail_urban rail rail_electric rail_fast ship" oneway="1"/>
    <type id="highway.unclassified" priority="4" numLanes="1" speed="13.89" disallow="tram rail_urban rail rail_electric rail_fast ship" oneway="1"/>
    <type id="highway.unsurfaced" priority="1" numLanes="1" speed="8.33" disallow="tram rail_urban rail rail_electric rail_fast ship" oneway="1"/>
    <type id="railway.highspeed" priority="21" numLanes="1" speed="69.44" allow="rail_fast" oneway="1"/>
    <type id="railway.light_rail" priority="19" numLanes="1" speed="27.78" allow="rail_urban" oneway="1"/>
    <type id="railway.preserved" priority="16" numLanes="1" speed="27.78" allow="rail" oneway="1"/>
    <type id="railway.rail" priority="20" numLanes="1" speed="44.44" allow="rail" oneway="1"/>
    <type id="railway.subway" priority="18" numLanes="1" speed="27.78" allow="rail_urban" oneway="1"/>
    <type id="railway.tram" priority="17" numLanes="1" speed="13.89" allow="tram" oneway="1"/>

    <edge id=":21698958_0" function="internal">
        <lane id=":21698958_0_0" index="0" allow="private emergency authority army vip passenger hov taxi bus coach delivery truck trailer motorcycle evehicle custom1 custom2" speed="33.33" length="8.14" shape="3087.52,4923.03 3090.20,4915.40"/>
        <lane id=":21698958_0_1" index="1" allow="private emergency authority army vip passenger hov taxi bus coach delivery truck trailer motorcycle evehicle custom1 custom2" speed="33.33" length="8.14" shape="3090.52,4924.15 3093.23,4916.42"/>
    </edge>
    <edge id=":21698958_2" function="internal">
        <lane id=":21698958_2_0" index="0" allow="private emergency authority army vip passenger hov taxi bus coach delivery truck trailer motorcycle evehicle custom1 custom2" speed="27.77" length="7.98" shape="3084.46,4921.88 3087.17,4914.38"/>
    </edge>
    <edge id=":21698959_0" function="internal">
        <lane id=":21698959_0_0" index="0" allow="private emergency authority army vip passenger hov taxi bus coach delivery truck trailer motorcycle evehicle custom1 custom2" speed="33.33" length="16.44" shape="3190.14,4531.17 3191.61,4526.49 3193.34,4523.51 3195.06,4520.53 3196.51,4515.84"/>
        <lane id=":21698959_0_1" index="1" allow="private emergency authority army vip passenger hov taxi bus coach delivery truck trailer motorcycle evehicle custom1 custom2" speed="33.33" length="16.44" shape="3193.27,4531.82 3196.51,4515.84"/>
        <lane id=":21698959_0_2" index="2" allow="private emergency authority army vip passenger hov taxi bus coach delivery truck trailer motorcycle evehicle custom1 custom2" speed="33.33" length="16.44" shape="3196.40,4532.47 3199.65,4516.48"/>
    </edge>
    <edge id=":21698970_0" function="internal">
        <lane id=":21698970_0_0" index="0" allow="private emergency authority army vip passenger hov taxi bus coach delivery truck trailer motorcycle evehicle custom1 custom2" speed="30.55" length="12.59" shape="3846.42,3214.73 3847.91,3211.16 3847.59,3208.15 3847.26,3205.14 3848.70,3201.54"/>
        <lane id=":21698970_0_1" index="1" allow="private emergency authority army vip passenger hov taxi bus coach delivery truck trailer motorcycle evehicle custom1 custom2" speed="30.55" length="12.59" shape="3846.42,3214.73 3848.22,3211.57 3848.89,3209.09 3849.54,3206.59 3851.30,3203.41"/>
        <lane id=":21698970_0_2" index="2" allow="private emergency authority army vip passenger hov taxi bus coach delivery truck trailer motorcycle evehicle custom1 custom2" speed="33.33" length="12.59" shape="3846.42,3214.73 3853.90,3205.27"/>
        <lane id=":21698970_0_3" index="3" allow="private emergency authority army vip passenger hov taxi bus coach delivery truck trailer motorcycle evehicle custom1 custom2" speed="33.33" length="12.59" shape="3849.00,3216.63 3856.50,3207.14"/>
    </edge>
    <edge id=":2308906209_0" function="internal">
        <lane id=":2308906209_0_0" index="0" allow="private emergency authority army vip passenger hov taxi bus coach delivery truck trailer motorcycle evehicle custom1 custom2" speed="33.33" length="0.25" shape="4499.02,1986.26 4499.03,1986.56"/>
        <lane id=":2308906209_0_1" index="1" allow="private emergency authority army vip passenger hov taxi bus coach delivery truck trailer motorcycle evehicle custom1 custom2" speed="33.33" length="0.25" shape="4495.83,1986.45 4495.83,1986.65"/>
    </edge>
    <edge id=":275519325_0" function="internal">
        <lane id=":275519325_0_0" index="0" allow="private emergency authority army vip passenger hov taxi bus coach delivery truck trailer motorcycle evehicle custom1 custom2" speed="27.78" length="7.77" shape="4452.63,1713.57 4455.12,1720.90"/>
        <lane id=":275519325_0_1" index="1" allow="private emergency authority army vip passenger hov taxi bus coach delivery truck trailer motorcycle evehicle custom1 custom2" speed="27.78" length="7.77" shape="4449.62,1714.66 4452.14,1722.04"/>
    </edge>
    <edge id=":275519325_2" function="internal">
        <lane id=":275519325_2_0" index="0" allow="private emergency authority army vip passenger hov taxi bus coach delivery truck trailer motorcycle evehicle custom1 custom2" speed="33.33" length="7.84" shape="4446.62,1715.74 4449.30,1723.04"/>
        <lane id=":275519325_2_1" index="1" allow="private emergency authority army vip passenger hov taxi bus coach delivery truck trailer motorcycle evehicle custom1 custom2" speed="33.33" length="7.84" shape="4443.61,1716.83 4446.33,1724.25"/>
    </edge>
    <edge id=":278425930_0" function="internal">
        <lane id=":278425930_0_0" index="0" allow="private emergency authority army vip passenger hov taxi bus coach delivery truck trailer motorcycle evehicle custom1 custom2" speed="22.22" length="0.24" shape="4443.97,2152.05 4444.05,2151.82"/>
    </edge>
    <edge id=":278425947_0" function="internal">
        <lane id=":278425947_0_0" index="0" allow="private emergency authority army vip passenger hov taxi bus coach delivery truck trailer motorcycle evehicle custom1 custom2" speed="22.22" length="12.32" shape="4460.00,2389.23 4451.09,2380.72"/>
    </edge>
    <edge id=":278426907_0" function="internal">
        <lane id=":278426907_0_0" index="0" allow="private emergency authority army vip passenger hov taxi bus coach delivery truck trailer motorcycle evehicle custom1 custom2" speed="25.00" length="10.80" shape="4504.84,1945.00 4506.51,1955.67"/>
    </edge>
    <edge id=":278427068_0" function="internal">
        <lane id=":278427068_0_0" index="0" allow="private emergency authority army vip passenger hov taxi bus coach delivery truck trailer motorcycle evehicle custom1 custom2" speed="22.22" length="0.25" shape="4505.60,2243.35 4505.61,2243.43 4505.61,2243.48 4505.62,2243.53 4505.64,2243.60"/>
    </edge>
    <edge id=":278427076_0" function="internal">
        <lane id=":278427076_0_0" index="0" allow="private emergency authority army vip passenger hov taxi bus coach delivery truck trailer motorcycle evehicle custom1 custom2" speed="30.55" length="7.84" shape="4707.33,2317.22 4714.75,2314.91"/>
        <lane id=":278427076_0_1" index="1" allow="private emergency authority army vip passenger hov taxi bus coach delivery truck trailer motorcycle evehicle custom1 custom2" speed="30.55" length="7.84" shape="4708.20,2320.30 4715.76,2317.95"/>
    </edge>
    <edge id=":278427076_2" function="internal">
        <lane id=":278427076_2_0" index="0" allow="private emergency authority army vip passenger hov taxi bus coach delivery truck trailer motorcycle evehicle custom1 custom2" speed="30.55" length="8.07" shape="4709.03,2323.25 4716.77,2320.99"/>
    </edge>
    <edge id=":282183364_0" function="internal">
        <lane id=":282183364_0_0" index="0" allow="private emergency authority army vip passenger hov taxi bus coach delivery truck trailer motorcycle evehicle custom1 custom2" speed="33.33" length="9.99" shape="3939.04,3117.91 3936.89,3120.02 3934.89,3120.92 3932.88,3121.83 3930.72,3123.93"/>
        <lane id=":282183364_0_1" index="1" allow="private emergency authority army vip passenger hov taxi bus coach delivery truck trailer motorcycle evehicle custom1 custom2" speed="33.33" length="9.99" shape="3936.46,3116.02 3930.72,3123.93"/>
        <lane id=":282183364_0_2" index="2" allow="private emergency authority army vip passenger hov taxi bus coach delivery truck trailer motorcycle evehicle custom1 custom2" speed="33.33" length="9.99" shape="3933.88,3114.13 3928.14,3122.03"/>
    </edge>
    <edge id=":287311895_0" function="internal">
        <lane id=":287311895_0_0" index="0" allow="private emergency authority army vip passenger hov taxi bus coach delivery truck trailer motorcycle evehicle custom1 custom2" speed="33.33" length="10.55" shape="4886.94,2257.57 4890.07,2257.04 4892.34,2257.40 4894.61,2257.76 4897.73,2257.21"/>
        <lane id=":287311895_0_1" index="1" allow="private emergency authority army vip passenger hov taxi bus coach delivery truck trailer motorcycle evehicle custom1 custom2" speed="33.33" length="10.55" shape="4887.95,2260.61 4897.73,2257.21"/>
        <lane id=":287311895_0_2" index="2" allow="private emergency authority army vip passenger hov taxi bus coach delivery truck trailer motorcycle evehicle custom1 custom2" speed="33.33" length="10.55" shape="4888.96,2263.65 4898.75,2260.25"/>
    </edge>
    <edge id=":287312204_0" function="internal">
        <lane id=":287312204_0_0" index="0" allow="private emergency authority army vip passenger hov taxi bus coach delivery truck trailer motorcycle evehicle custom1 custom2" speed="27.77" length="14.18" shape="4794.68,2305.61 4790.84,2307.35 4788.46,2309.10 4786.09,2310.85 4782.25,2312.59"/>
        <lane id=":287312204_0_1" index="1" allow="private emergency authority army vip passenger hov taxi bus coach delivery truck trailer motorcycle evehicle custom1 custom2" speed="27.77" length="14.18" shape="4794.68,2305.61 4781.21,2309.57"/>
    </edge>
    <edge id=":287312204_2" function="internal">
        <lane id=":287312204_2_0" index="0" allow="private emergency authority army vip passenger hov taxi bus coach delivery truck trailer motorcycle evehicle custom1 custom2" speed="30.55" length="14.03" shape="4793.64,2302.59 4780.23,2306.70"/>
    </edge>
    <edge id=":315135605_0" function="internal">
        <lane id=":315135605_0_0" index="0" allow="private emergency authority army vip passenger hov taxi bus coach delivery truck trailer motorcycle evehicle custom1 custom2" speed="33.33" length="13.15" shape="2910.45,5386.64 2908.76,5390.18 2907.01,5392.33 2905.28,5394.49 2903.67,5398.06"/>
        <lane id=":315135605_0_1" index="1" allow="private emergency authority army vip passenger hov taxi bus coach delivery truck trailer motorcycle evehicle custom1 custom2" speed="33.33" length="13.15" shape="2907.42,5385.60 2903.67,5398.06"/>
        <lane id=":315135605_0_2" index="2" allow="private emergency authority army vip passenger hov taxi bus coach delivery truck trailer motorcycle evehicle custom1 custom2" speed="33.33" length="13.15" shape="2904.39,5384.56 2900.63,5397.08"/>
    </edge>
    <edge id=":36738189_0" function="internal">
        <lane id=":36738189_0_0" index="0" allow="private emergency authority army vip passenger hov taxi bus coach delivery truck trailer motorcycle evehicle custom1 custom2" speed="27.78" length="3.17" shape="4170.56,2753.58 4172.33,2751.03"/>
        <lane id=":36738189_0_1" index="1" allow="private emergency authority army vip passenger hov taxi bus coach delivery truck trailer motorcycle evehicle custom1 custom2" speed="27.78" length="3.17" shape="4173.16,2755.45 4175.01,2752.79"/>
    </edge>
    <edge id=":36738189_2" function="internal">
        <lane id=":36738189_2_0" index="0" allow="private emergency authority army vip passenger hov taxi bus coach delivery truck trailer motorcycle evehicle custom1 custom2" speed="33.33" length="3.43" shape="4175.76,2757.31 4177.77,2754.61"/>
        <lane id=":36738189_2_1" index="1" allow="private emergency authority army vip passenger hov taxi bus coach delivery truck trailer motorcycle evehicle custom1 custom2" speed="33.33" length="3.43" shape="4178.36,2759.18 4180.44,2756.39"/>
    </edge>
    <edge id=":36738219_0" function="internal">
        <lane id=":36738219_0_0" index="0" allow="private emergency authority army vip passenger hov taxi bus coach delivery truck trailer motorcycle evehicle custom1 custom2" speed="27.78" length="9.46" shape="4284.81,2576.04 4289.39,2567.76"/>
    </edge>
    <edge id=":502973_0" function="internal">
        <lane id=":502973_0_0" index="0" allow="private emergency authority army vip passenger hov taxi bus coach delivery truck trailer motorcycle evehicle custom1 custom2" speed="25.00" length="8.15" shape="3151.00,4800.59 3148.90,4808.46"/>
    </edge>
    <edge id=":502973_1" function="internal">
        <lane id=":502973_1_0" index="0" allow="private emergency authority army vip passenger hov taxi bus coach delivery truck trailer motorcycle evehicle custom1 custom2" speed="33.33" length="8.06" shape="3147.91,4799.76 3145.78,4807.56"/>
        <lane id=":502973_1_1" index="1" allow="private emergency authority army vip passenger hov taxi bus coach delivery truck trailer motorcycle evehicle custom1 custom2" speed="33.33" length="8.06" shape="3144.82,4798.93 3142.70,4806.68"/>
    </edge>
    <edge id=":5577787162_0" function="internal">
        <lane id=":5577787162_0_0" index="0" allow="private emergency authority army vip passenger hov taxi bus coach delivery truck trailer motorcycle evehicle custom1 custom2" speed="27.77" length="9.74" shape="4479.03,1982.24 4478.92,1972.50"/>
    </edge>
    <edge id=":5577787162_1" function="internal">
        <lane id=":5577787162_1_0" index="0" allow="private emergency authority army vip passenger hov taxi bus coach delivery truck trailer motorcycle evehicle custom1 custom2" speed="33.33" length="9.79" shape="4482.35,1982.13 4482.12,1972.36"/>
        <lane id=":5577787162_1_1" index="1" allow="private emergency authority army vip passenger hov taxi bus coach delivery truck trailer motorcycle evehicle custom1 custom2" speed="33.33" length="9.79" shape="4485.55,1982.03 4485.32,1972.22"/>
    </edge>
    <edge id=":59962767_0" function="internal">
        <lane id=":59962767_0_0" index="0" allow="private emergency authority army vip passenger hov taxi bus coach delivery truck trailer motorcycle evehicle custom1 custom2" speed="25.00" length="8.81" shape="2861.44,5481.10 2863.73,5472.60"/>
    </edge>
    <edge id=":59962767_1" function="internal">
        <lane id=":59962767_1_0" index="0" allow="private emergency authority army vip passenger hov taxi bus coach delivery truck trailer motorcycle evehicle custom1 custom2" speed="33.33" length="8.77" shape="2864.54,5481.91 2866.67,5473.44"/>
        <lane id=":59962767_1_1" index="1" allow="private emergency authority army vip passenger hov taxi bus coach delivery truck trailer motorcycle evehicle custom1 custom2" speed="33.33" length="8.77" shape="2867.63,5482.72 2869.78,5474.20"/>
    </edge>
    <edge id=":59962795_0" function="internal">
        <lane id=":59962795_0_0" index="0" allow="private emergency authority army vip passenger hov taxi bus coach delivery truck trailer motorcycle evehicle custom1 custom2" speed="27.77" length="13.51" shape="3036.99,5089.26 3031.07,5101.40"/>
    </edge>
    <edge id=":59962795_1" function="internal">
        <lane id=":59962795_1_0" index="0" allow="private emergency authority army vip passenger hov taxi bus coach delivery truck trailer motorcycle evehicle custom1 custom2" speed="33.33" length="13.59" shape="3034.08,5087.79 3028.18,5100.03"/>
        <lane id=":59962795_1_1" index="1" allow="private emergency authority army vip passenger hov taxi bus coach delivery truck trailer motorcycle evehicle custom1 custom2" speed="33.33" length="13.59" shape="3031.19,5086.41 3025.29,5098.66"/>
    </edge>
    <edge id=":891122822_0" function="internal">
        <lane id=":891122822_0_0" index="0" allow="private emergency authority army vip passenger hov taxi bus coach delivery truck trailer motorcycle evehicle custom1 custom2" speed="25.00" length="9.25" shape="4599.95,2332.49 4602.59,2333.22 4604.43,2333.61 4606.30,2333.81 4609.04,2333.95"/>
    </edge>
    <edge id=":891122822_1" function="internal">
        <lane id=":891122822_1_0" index="0" allow="private emergency authority army vip passenger hov taxi bus coach delivery truck trailer motorcycle evehicle custom1 custom2" speed="25.00" length="9.75" shape="4599.24,2335.84 4602.09,2336.34 4604.05,2336.70 4606.01,2336.96 4608.90,2337.15"/>
    </edge>
    <edge id=":999333674_0" function="internal">
        <lane id=":999333674_0_0" index="0" allow="private emergency authority army vip passenger hov taxi bus coach delivery truck trailer motorcycle evehicle custom1 custom2" speed="33.33" length="0.29" shape="3771.69,3341.76 3771.51,3342.02"/>
        <lane id=":999333674_0_1" index="1" allow="private emergency authority army vip passenger hov taxi bus coach delivery truck trailer motorcycle evehicle custom1 custom2" speed="33.33" length="0.29" shape="3769.09,3339.90 3768.94,3340.12"/>
    </edge>
    <edge id=":J117_0" function="internal">
        <lane id=":J117_0_0" index="0" allow="private emergency authority army vip passenger hov taxi bus coach delivery truck trailer motorcycle evehicle custom1 custom2" speed="33.33" length="0.23" shape="4468.82,1786.27 4468.90,1786.55"/>
        <lane id=":J117_0_1" index="1" allow="private emergency authority army vip passenger hov taxi bus coach delivery truck trailer motorcycle evehicle custom1 custom2" speed="33.33" length="0.23" shape="4465.75,1787.16 4465.80,1787.33"/>
    </edge>
    <edge id=":J125_0" function="internal">
        <lane id=":J125_0_0" index="0" allow="private emergency authority army vip passenger hov taxi bus coach delivery truck trailer motorcycle evehicle custom1 custom2" speed="22.22" length="0.25" shape="4513.06,2036.78 4513.06,2037.02"/>
    </edge>
    <edge id=":J13_0" function="internal">
        <lane id=":J13_0_0" index="0" allow="private emergency authority army vip passenger hov taxi bus coach delivery truck trailer motorcycle evehicle custom1 custom2" speed="33.33" length="12.38" shape="4461.79,1834.22 4460.60,1830.82 4459.10,1828.73 4457.57,1826.65 4456.28,1823.27"/>
        <lane id=":J13_0_1" index="1" allow="private emergency authority army vip passenger hov taxi bus coach delivery truck trailer motorcycle evehicle custom1 custom2" speed="33.33" length="12.38" shape="4464.92,1833.57 4463.73,1830.14 4462.23,1828.03 4460.69,1825.93 4459.39,1822.52"/>
        <lane id=":J13_0_2" index="2" allow="private emergency authority army vip passenger hov taxi bus coach delivery truck trailer motorcycle evehicle custom1 custom2" speed="33.33" length="12.38" shape="4468.05,1832.92 4466.85,1829.46 4465.35,1827.33 4463.81,1825.21 4462.51,1821.78"/>
        <lane id=":J13_0_3" index="3" allow="private emergency authority army vip passenger hov taxi bus coach delivery truck trailer motorcycle evehicle custom1 custom2" speed="33.33" length="12.38" shape="4468.05,1832.92 4465.62,1821.03"/>
    </edge>
    <edge id=":J132_0" function="internal">
        <lane id=":J132_0_0" index="0" allow="private emergency authority army vip passenger hov taxi bus coach delivery truck trailer motorcycle evehicle custom1 custom2" speed="33.33" length="0.29" shape="4485.60,2186.72 4485.55,2187.03"/>
        <lane id=":J132_0_1" index="1" allow="private emergency authority army vip passenger hov taxi bus coach delivery truck trailer motorcycle evehicle custom1 custom2" speed="33.33" length="0.29" shape="4482.44,2186.20 4482.40,2186.45"/>
    </edge>
    <edge id=":J144_0" function="internal">
        <lane id=":J144_0_0" index="0" allow="private emergency authority army vip passenger hov taxi bus coach delivery truck trailer motorcycle evehicle custom1 custom2" speed="33.33" length="0.28" shape="4442.15,2300.87 4442.23,2300.63"/>
        <lane id=":J144_0_1" index="1" allow="private emergency authority army vip passenger hov taxi bus coach delivery truck trailer motorcycle evehicle custom1 custom2" speed="33.33" length="0.28" shape="4445.20,2301.84 4445.29,2301.54"/>
    </edge>
    <edge id=":J15_0" function="internal">
        <lane id=":J15_0_0" index="0" allow="private emergency authority army vip passenger hov taxi bus coach delivery truck trailer motorcycle evehicle custom1 custom2" speed="33.33" length="0.30" shape="4363.39,2485.05 4363.53,2484.79"/>
        <lane id=":J15_0_1" index="1" allow="private emergency authority army vip passenger hov taxi bus coach delivery truck trailer motorcycle evehicle custom1 custom2" speed="33.33" length="0.30" shape="4366.19,2486.59 4366.33,2486.33"/>
    </edge>
    <edge id=":J16_0" function="internal">
        <lane id=":J16_0_0" index="0" allow="private emergency authority army vip passenger hov taxi bus coach delivery truck trailer motorcycle evehicle custom1 custom2" speed="25.00" length="0.30" shape="4572.61,2353.80 4572.91,2353.78"/>
    </edge>
    <edge id=":J17_0" function="internal">
        <lane id=":J17_0_0" index="0" allow="private emergency authority army vip passenger hov taxi bus coach delivery truck trailer motorcycle evehicle custom1 custom2" speed="19.45" length="0.30" shape="3038.63,5008.05 3038.89,5007.89"/>
    </edge>
    <edge id=":J18_0" function="internal">
        <lane id=":J18_0_0" index="0" allow="private emergency authority army vip passenger hov taxi bus coach delivery truck trailer motorcycle evehicle custom1 custom2" speed="33.33" length="0.30" shape="4252.60,2652.70 4252.78,2652.45"/>
        <lane id=":J18_0_1" index="1" allow="private emergency authority army vip passenger hov taxi bus coach delivery truck trailer motorcycle evehicle custom1 custom2" speed="33.33" length="0.30" shape="4255.20,2654.56 4255.37,2654.33"/>
    </edge>
    <edge id=":J19_0" function="internal">
        <lane id=":J19_0_0" index="0" allow="private emergency authority army vip passenger hov taxi bus coach delivery truck trailer motorcycle evehicle custom1 custom2" speed="19.45" length="0.30" shape="3068.72,5037.78 3068.50,5037.98"/>
    </edge>
    <edge id=":J20_0" function="internal">
        <lane id=":J20_0_0" index="0" allow="private emergency authority army vip passenger hov taxi bus coach delivery truck trailer motorcycle evehicle custom1 custom2" speed="19.45" length="8.33" shape="2995.01,4952.19 2993.49,4954.16 2991.89,4955.09 2990.30,4956.02 2988.81,4958.00"/>
        <lane id=":J20_0_1" index="1" allow="private emergency authority army vip passenger hov taxi bus coach delivery truck trailer motorcycle evehicle custom1 custom2" speed="19.45" length="8.33" shape="2992.16,4950.73 2988.81,4958.00"/>
    </edge>
    <edge id=":J213_0" function="internal">
        <lane id=":J213_0_0" index="0" allow="private emergency authority army vip passenger hov taxi bus coach delivery truck trailer motorcycle evehicle custom1 custom2" speed="33.33" length="0.30" shape="3651.05,3503.10 3650.86,3503.35"/>
        <lane id=":J213_0_1" index="1" allow="private emergency authority army vip passenger hov taxi bus coach delivery truck trailer motorcycle evehicle custom1 custom2" speed="33.33" length="0.30" shape="3648.47,3501.20 3648.30,3501.43"/>
    </edge>
    <edge id=":J217_0" function="internal">
        <lane id=":J217_0_0" index="0" allow="private emergency authority army vip passenger hov taxi bus coach delivery truck trailer motorcycle evehicle custom1 custom2" speed="33.33" length="0.30" shape="3533.52,3666.28 3533.35,3666.52"/>
        <lane id=":J217_0_1" index="1" allow="private emergency authority army vip passenger hov taxi bus coach delivery truck trailer motorcycle evehicle custom1 custom2" speed="33.33" length="0.30" shape="3530.87,3664.48 3530.70,3664.73"/>
    </edge>
    <edge id=":J221_0" function="internal">
        <lane id=":J221_0_0" index="0" allow="private emergency authority army vip passenger hov taxi bus coach delivery truck trailer motorcycle evehicle custom1 custom2" speed="33.33" length="0.30" shape="3426.60,3835.94 3426.45,3836.21"/>