<?xml version="1.0" encoding="UTF-8"?>

<!-- generated on 2023-05-23 12:27:06 by Eclipse SUMO netedit Version 1.15.0
<configuration xmlns:xsi="http://www.w3.org/2001/XMLSchema-instance" xsi:noNamespaceSchemaLocation="http://sumo.dlr.de/xsd/netconvertConfiguration.xsd">

    <input>
        <sumo-net-file value="C:\Users\Paulinho\Desktop\Master-Thesis\nodes\no_associacao_empresarial.net.xml"/>
    </input>

    <output>
        <output-file value="C:\Users\Paulinho\Desktop\Master-Thesis\nodes\no_associacao_empresarial.net.xml"/>
        <output.street-names value="true"/>
    </output>

    <processing>
        <geometry.min-radius.fix.railways value="false"/>
        <geometry.max-grade.fix value="false"/>
        <offset.disable-normalization value="true"/>
        <lefthand value="0"/>
    </processing>

    <junctions>
        <no-turnarounds value="true"/>
        <junctions.corner-detail value="5"/>
        <junctions.limit-turn-speed value="5.50"/>
        <rectangular-lane-cut value="0"/>
    </junctions>

    <pedestrian>
        <walkingareas value="0"/>
    </pedestrian>

    <netedit>
        <additional-files value="C:\Users\Paulinho\Desktop\Master-Thesis\nodes\no_associacao_empresarial_poi.xml"/>
    </netedit>

</configuration>
-->

<net version="1.9" junctionCornerDetail="5" limitTurnSpeed="5.50" xmlns:xsi="http://www.w3.org/2001/XMLSchema-instance" xsi:noNamespaceSchemaLocation="http://sumo.dlr.de/xsd/net_file.xsd">

    <location netOffset="-524914.43,-4544541.91" convBoundary="4689.97,12519.46,5586.12,13174.45" origBoundary="-8.702913,41.051318,-8.236192,41.279522" projParameter="+proj=utm +zone=29 +ellps=WGS84 +datum=WGS84 +units=m +no_defs"/>

    <type id="highway.bridleway" priority="1" numLanes="1" speed="2.78" allow="pedestrian" oneway="1" width="2.00"/>
    <type id="highway.bus_guideway" priority="1" numLanes="1" speed="27.78" allow="bus" oneway="1"/>
    <type id="highway.cycleway" priority="1" numLanes="1" speed="5.56" allow="bicycle" oneway="0" width="1.00"/>
    <type id="highway.footway" priority="1" numLanes="1" speed="2.78" allow="pedestrian" oneway="1" width="2.00"/>
    <type id="highway.ford" priority="1" numLanes="1" speed="2.78" allow="army" oneway="0"/>
    <type id="highway.living_street" priority="2" numLanes="1" speed="2.78" disallow="tram rail_urban rail rail_electric rail_fast ship" oneway="0"/>
    <type id="highway.motorway" priority="14" numLanes="2" speed="39.44" allow="private emergency authority army vip passenger hov taxi bus coach delivery truck trailer motorcycle evehicle custom1 custom2" oneway="1"/>
    <type id="highway.motorway_link" priority="9" numLanes="1" speed="22.22" allow="private emergency authority army vip passenger hov taxi bus coach delivery truck trailer motorcycle evehicle custom1 custom2" oneway="1"/>
    <type id="highway.path" priority="1" numLanes="1" speed="5.56" allow="pedestrian bicycle" oneway="0" width="2.00"/>
    <type id="highway.pedestrian" priority="1" numLanes="1" speed="2.78" allow="pedestrian" oneway="1" width="2.00"/>
    <type id="highway.primary" priority="12" numLanes="2" speed="27.78" disallow="tram rail_urban rail rail_electric rail_fast ship" oneway="0"/>
    <type id="highway.primary_link" priority="7" numLanes="1" speed="22.22" disallow="tram rail_urban rail rail_electric rail_fast ship" oneway="0"/>
    <type id="highway.raceway" priority="15" numLanes="2" speed="83.33" allow="vip" oneway="0"/>
    <type id="highway.residential" priority="3" numLanes="1" speed="13.89" disallow="tram rail_urban rail rail_electric rail_fast ship" oneway="0"/>
    <type id="highway.secondary" priority="11" numLanes="1" speed="27.78" disallow="tram rail_urban rail rail_electric rail_fast ship" oneway="0"/>
    <type id="highway.secondary_link" priority="6" numLanes="1" speed="22.22" disallow="tram rail_urban rail rail_electric rail_fast ship" oneway="0"/>
    <type id="highway.service" priority="1" numLanes="1" speed="5.56" allow="pedestrian delivery bicycle" oneway="0"/>
    <type id="highway.stairs" priority="1" numLanes="1" speed="1.39" allow="pedestrian" oneway="1" width="2.00"/>
    <type id="highway.step" priority="1" numLanes="1" speed="1.39" allow="pedestrian" oneway="1" width="2.00"/>
    <type id="highway.steps" priority="1" numLanes="1" speed="1.39" allow="pedestrian" oneway="1" width="2.00"/>
    <type id="highway.tertiary" priority="10" numLanes="1" speed="22.22" disallow="tram rail_urban rail rail_electric rail_fast ship" oneway="0"/>
    <type id="highway.tertiary_link" priority="5" numLanes="1" speed="22.22" disallow="tram rail_urban rail rail_electric rail_fast ship" oneway="0"/>
    <type id="highway.track" priority="1" numLanes="1" speed="5.56" allow="pedestrian motorcycle moped bicycle" oneway="0"/>
    <type id="highway.trunk" priority="13" numLanes="2" speed="27.78" disallow="pedestrian bicycle tram rail_urban rail rail_electric rail_fast ship" oneway="0"/>
    <type id="highway.trunk_link" priority="8" numLanes="1" speed="22.22" disallow="pedestrian bicycle tram rail_urban rail rail_electric rail_fast ship" oneway="0"/>
    <type id="highway.unclassified" priority="4" numLanes="1" speed="13.89" disallow="tram rail_urban rail rail_electric rail_fast ship" oneway="0"/>
    <type id="highway.unsurfaced" priority="1" numLanes="1" speed="8.33" disallow="tram rail_urban rail rail_electric rail_fast ship" oneway="0"/>
    <type id="railway.highspeed" priority="21" numLanes="1" speed="69.44" allow="rail_fast" oneway="1"/>
    <type id="railway.light_rail" priority="19" numLanes="1" speed="27.78" allow="rail_urban" oneway="1"/>
    <type id="railway.preserved" priority="16" numLanes="1" speed="27.78" allow="rail" oneway="1"/>
    <type id="railway.rail" priority="20" numLanes="1" speed="44.44" allow="rail" oneway="1"/>
    <type id="railway.subway" priority="18" numLanes="1" speed="27.78" allow="rail_urban" oneway="1"/>
    <type id="railway.tram" priority="17" numLanes="1" speed="13.89" allow="tram" oneway="1"/>

    <edge id=":112588576_0" function="internal">
        <lane id=":112588576_0_0" index="0" allow="private emergency authority army vip passenger hov taxi bus coach delivery truck trailer motorcycle evehicle custom1 custom2" speed="12.50" length="13.42" shape="4937.90,12990.23 4940.85,12987.56 4943.16,12985.99 4945.28,12984.28 4947.66,12981.16"/>
        <lane id=":112588576_0_1" index="1" allow="private emergency authority army vip passenger hov taxi bus coach delivery truck trailer motorcycle evehicle custom1 custom2" speed="12.50" length="12.57" shape="4940.23,12992.42 4943.02,12989.96 4945.26,12988.57 4947.31,12987.04 4949.56,12984.16"/>
    </edge>
    <edge id=":112588576_2" function="internal">
        <lane id=":112588576_2_0" index="0" allow="private emergency authority army vip passenger hov taxi bus coach delivery truck trailer motorcycle evehicle custom1 custom2" speed="26.66" length="11.42" shape="4942.57,12994.62 4944.91,12992.00 4946.49,12990.18 4948.19,12988.49 4950.91,12986.29"/>
        <lane id=":112588576_2_1" index="1" allow="private emergency authority army vip passenger hov taxi bus coach delivery truck trailer motorcycle evehicle custom1 custom2" speed="26.66" length="11.42" shape="4944.90,12996.81 4947.08,12994.36 4948.53,12992.65 4950.11,12991.06 4952.63,12989.00"/>
    </edge>
    <edge id=":112589349_0" function="internal">
        <lane id=":112589349_0_0" index="0" allow="private emergency authority army vip passenger hov taxi bus coach delivery truck trailer motorcycle evehicle custom1 custom2" speed="10.91" length="3.88" shape="4974.27,12996.43 4973.50,12997.30 4972.96,12997.90 4972.33,12998.37 4971.30,12998.83"/>
    </edge>
    <edge id=":112589349_1" function="internal">
        <lane id=":112589349_1_0" index="0" allow="private emergency authority army vip passenger hov taxi bus coach delivery truck trailer motorcycle evehicle custom1 custom2" speed="19.44" length="2.96" shape="4971.96,12994.22 4969.94,12996.34"/>
        <lane id=":112589349_1_1" index="1" allow="private emergency authority army vip passenger hov taxi bus coach delivery truck trailer motorcycle evehicle custom1 custom2" speed="19.44" length="2.96" shape="4969.65,12992.01 4967.62,12994.14"/>
        <lane id=":112589349_1_2" index="2" allow="private emergency authority army vip passenger hov taxi bus coach delivery truck trailer motorcycle evehicle custom1 custom2" speed="19.44" length="2.96" shape="4967.34,12989.79 4965.29,12991.95"/>
        <lane id=":112589349_1_3" index="3" allow="private emergency authority army vip passenger hov taxi bus coach delivery truck trailer motorcycle evehicle custom1 custom2" speed="19.44" length="2.96" shape="4965.02,12987.58 4962.96,12989.75"/>
    </edge>
    <edge id=":112590296_0" function="internal">
        <lane id=":112590296_0_0" index="0" disallow="moped bicycle tram rail_urban rail rail_electric rail_fast ship" speed="11.11" length="2.03" shape="5142.42,12817.69 5142.15,12815.63"/>
        <lane id=":112590296_0_1" index="1" disallow="moped bicycle tram rail_urban rail rail_electric rail_fast ship" speed="11.11" length="2.03" shape="5140.17,12815.41 5139.80,12813.46"/>
    </edge>
    <edge id=":112591715_0" function="internal">
        <lane id=":112591715_0_0" index="0" allow="private emergency authority army vip passenger hov taxi bus coach delivery truck trailer motorcycle evehicle custom1 custom2" speed="11.11" length="5.87" shape="5210.01,12793.61 5208.70,12792.96 5207.53,12793.35 5206.22,12793.99 5204.51,12794.04"/>
    </edge>
    <edge id=":112594210_0" function="internal">
        <lane id=":112594210_0_0" index="0" disallow="tram rail_urban rail rail_electric rail_fast ship" speed="27.78" length="11.47" shape="5520.34,12546.59 5509.29,12549.64"/>
    </edge>
    <edge id=":112594210_1" function="internal">
        <lane id=":112594210_1_0" index="0" allow="private emergency authority army vip passenger hov taxi bus coach delivery truck trailer motorcycle evehicle custom1 custom2" speed="33.61" length="43.86" shape="5519.62,12543.47 5509.50,12545.74 5496.36,12548.56 5484.12,12551.08 5476.69,12552.42"/>
    </edge>
    <edge id=":112594210_2" function="internal">
        <lane id=":112594210_2_0" index="0" disallow="tram rail_urban rail rail_electric rail_fast ship" speed="27.78" length="43.21" shape="5475.62,12539.93 5485.11,12539.59 5496.99,12539.22 5508.83,12538.53 5518.18,12537.24"/>
        <lane id=":112594210_2_1" index="1" disallow="tram rail_urban rail rail_electric rail_fast ship" speed="27.78" length="43.21" shape="5475.30,12543.15 5484.95,12542.80 5497.19,12542.39 5509.38,12541.66 5518.90,12540.36"/>
    </edge>
    <edge id=":112594210_4" function="internal">
        <lane id=":112594210_4_0" index="0" allow="private emergency authority army vip passenger hov taxi bus coach delivery truck trailer motorcycle evehicle custom1 custom2" speed="33.61" length="43.86" shape="5475.50,12546.72 5518.90,12540.36"/>
    </edge>
    <edge id=":112594214_0" function="internal">
        <lane id=":112594214_0_0" index="0" disallow="tram rail_urban rail rail_electric rail_fast ship" speed="27.78" length="8.00" shape="5444.22,12563.87 5441.94,12564.53 5440.48,12565.34 5439.01,12566.09 5436.71,12566.61"/>
        <lane id=":112594214_0_1" index="1" disallow="tram rail_urban rail rail_electric rail_fast ship" speed="27.78" length="8.00" shape="5444.22,12563.87 5441.90,12564.03 5440.29,12563.74 5438.68,12563.41 5436.34,12563.43"/>
    </edge>
    <edge id=":112594236_0" function="internal">
        <lane id=":112594236_0_0" index="0" disallow="moped bicycle tram rail_urban rail rail_electric rail_fast ship" speed="25.00" length="16.28" shape="5324.74,12639.47 5319.99,12639.94 5316.83,12640.86 5313.79,12642.31 5309.40,12644.36"/>
        <lane id=":112594236_0_1" index="1" disallow="moped bicycle tram rail_urban rail rail_electric rail_fast ship" speed="25.00" length="16.90" shape="5324.74,12639.47 5319.71,12639.47 5316.20,12639.35 5312.81,12639.78 5308.15,12641.41"/>
    </edge>
    <edge id=":112594236_2" function="internal">
        <lane id=":112594236_2_0" index="0" disallow="tram rail_urban rail rail_electric rail_fast ship" speed="18.51" length="17.29" shape="5324.74,12639.47 5319.46,12639.59 5315.81,12639.16 5312.36,12637.87 5307.71,12635.36"/>
        <lane id=":112594236_2_1" index="1" disallow="tram rail_urban rail rail_electric rail_fast ship" speed="18.18" length="17.29" shape="5324.61,12636.28 5319.53,12636.34 5316.03,12635.82 5312.74,12634.47 5308.26,12632.01"/>
        <lane id=":112594236_2_2" index="2" disallow="tram rail_urban rail rail_electric rail_fast ship" speed="17.85" length="17.29" shape="5324.47,12633.08 5319.60,12633.09 5316.26,12632.48 5313.12,12631.07 5308.82,12628.65"/>
    </edge>
    <edge id=":112594240_0" function="internal">
        <lane id=":112594240_0_0" index="0" disallow="moped bicycle tram rail_urban rail rail_electric rail_fast ship" speed="22.22" length="8.12" shape="5276.34,12670.03 5274.92,12671.99 5274.25,12673.55 5273.54,12675.09 5272.06,12676.99"/>
        <lane id=":112594240_0_1" index="1" disallow="moped bicycle tram rail_urban rail rail_electric rail_fast ship" speed="22.22" length="8.12" shape="5273.95,12667.90 5272.56,12669.83 5271.90,12671.37 5271.22,12672.90 5269.76,12674.77"/>
        <lane id=":112594240_0_2" index="2" disallow="moped bicycle tram rail_urban rail rail_electric rail_fast ship" speed="22.22" length="8.12" shape="5273.95,12667.90 5272.21,12669.48 5270.75,12670.26 5269.27,12671.03 5267.46,12672.55"/>
    </edge>
    <edge id=":112594241_0" function="internal">
        <lane id=":112594241_0_0" index="0" disallow="moped bicycle tram rail_urban rail rail_electric rail_fast ship" speed="22.22" length="0.37" shape="5260.58,12689.27 5260.24,12689.62"/>
        <lane id=":112594241_0_1" index="1" disallow="moped bicycle tram rail_urban rail rail_electric rail_fast ship" speed="22.22" length="0.37" shape="5258.21,12687.11 5257.96,12687.38"/>
        <lane id=":112594241_0_2" index="2" disallow="moped bicycle tram rail_urban rail rail_electric rail_fast ship" speed="22.22" length="0.37" shape="5255.85,12684.95 5255.68,12685.14"/>
    </edge>
    <edge id=":112595515_0" function="internal">
        <lane id=":112595515_0_0" index="0" allow="private emergency authority army vip passenger hov taxi bus coach delivery truck trailer motorcycle evehicle custom1 custom2" speed="22.22" length="2.86" shape="5241.98,12667.78 5243.96,12665.63"/>
        <lane id=":112595515_0_1" index="1" allow="private emergency authority army vip passenger hov taxi bus coach delivery truck trailer motorcycle evehicle custom1 custom2" speed="22.22" length="2.86" shape="5244.37,12669.90 5246.27,12667.85"/>
    </edge>
    <edge id=":112595515_2" function="internal">
        <lane id=":112595515_2_0" index="0" allow="private emergency authority army vip passenger hov taxi bus coach delivery truck trailer motorcycle evehicle custom1 custom2" speed="22.22" length="3.04" shape="5239.70,12665.76 5240.24,12665.03 5240.62,12664.54 5241.03,12664.08 5241.64,12663.42"/>
    </edge>
    <edge id=":1243857937_0" function="internal">
        <lane id=":1243857937_0_0" index="0" allow="private emergency authority army vip passenger hov taxi bus coach delivery truck trailer motorcycle evehicle custom1 custom2" speed="22.22" length="8.09" shape="4880.32,12675.34 4878.54,12673.89 4877.55,12672.60 4876.53,12671.36 4874.69,12670.01"/>
        <lane id=":1243857937_0_1" index="1" allow="private emergency authority army vip passenger hov taxi bus coach delivery truck trailer motorcycle evehicle custom1 custom2" speed="22.22" length="8.09" shape="4882.07,12672.67 4880.25,12671.18 4879.23,12669.88 4878.18,12668.61 4876.29,12667.24"/>
        <lane id=":1243857937_0_2" index="2" allow="private emergency authority army vip passenger hov taxi bus coach delivery truck trailer motorcycle evehicle custom1 custom2" speed="22.22" length="8.09" shape="4883.83,12670.00 4881.96,12668.48 4880.90,12667.15 4879.82,12665.87 4877.88,12664.46"/>
        <lane id=":1243857937_0_3" index="3" allow="private emergency authority army vip passenger hov taxi bus coach delivery truck trailer motorcycle evehicle custom1 custom2" speed="22.22" length="8.09" shape="4885.59,12667.32 4883.67,12665.77 4882.58,12664.43 4881.46,12663.12 4879.48,12661.69"/>
    </edge>
    <edge id=":1243857939_0" function="internal">
        <lane id=":1243857939_0_0" index="0" allow="private emergency authority army vip passenger hov taxi bus coach delivery truck trailer motorcycle evehicle custom1 custom2" speed="23.61" length="3.13" shape="4792.85,12594.79 4795.61,12596.27"/>
    </edge>
    <edge id=":1243857939_1" function="internal">
        <lane id=":1243857939_1_0" index="0" allow="private emergency authority army vip passenger hov taxi bus coach delivery truck trailer motorcycle evehicle custom1 custom2" speed="22.22" length="3.22" shape="4791.22,12597.54 4793.96,12599.14"/>
        <lane id=":1243857939_1_1" index="1" allow="private emergency authority army vip passenger hov taxi bus coach delivery truck trailer motorcycle evehicle custom1 custom2" speed="22.22" length="3.22" shape="4789.58,12600.29 4792.36,12601.92"/>
        <lane id=":1243857939_1_2" index="2" allow="private emergency authority army vip passenger hov taxi bus coach delivery truck trailer motorcycle evehicle custom1 custom2" speed="22.22" length="3.22" shape="4787.95,12603.05 4790.77,12604.69"/>
    </edge>
    <edge id=":1243857957_0" function="internal">
        <lane id=":1243857957_0_0" index="0" allow="private emergency authority army vip passenger hov taxi bus coach delivery truck trailer motorcycle evehicle custom1 custom2" speed="17.54" length="25.99" shape="5028.98,12942.61 5025.23,12944.05 5021.23,12947.31 5016.62,12952.06 5011.08,12957.98"/>
        <lane id=":1243857957_0_1" index="1" allow="private emergency authority army vip passenger hov taxi bus coach delivery truck trailer motorcycle evehicle custom1 custom2" speed="17.76" length="25.99" shape="5028.98,12942.61 5024.90,12943.68 5020.14,12946.13 5014.75,12950.11 5008.77,12955.76"/>
        <lane id=":1243857957_0_2" index="2" allow="private emergency authority army vip passenger hov taxi bus coach delivery truck trailer motorcycle evehicle custom1 custom2" speed="18.05" length="25.99" shape="5028.98,12942.61 5024.58,12943.28 5019.10,12944.90 5012.93,12948.10 5006.46,12953.55"/>
        <lane id=":1243857957_0_3" index="3" allow="private emergency authority army vip passenger hov taxi bus coach delivery truck trailer motorcycle evehicle custom1 custom2" speed="18.05" length="25.99" shape="5028.98,12942.61 5024.28,12942.87 5018.11,12943.62 5011.17,12946.04 5004.15,12951.34"/>
        <lane id=":1243857957_0_4" index="4" allow="private emergency authority army vip passenger hov taxi bus coach delivery truck trailer motorcycle evehicle custom1 custom2" speed="18.05" length="25.99" shape="5028.98,12942.61 5024.00,12942.45 5017.16,12942.30 5009.45,12943.93 5001.84,12949.12"/>
    </edge>
    <edge id=":1243857957_5" function="internal">
        <lane id=":1243857957_5_0" index="0" allow="private emergency authority army vip passenger hov taxi bus coach delivery truck trailer motorcycle evehicle custom1 custom2" speed="15.28" length="18.18" shape="5019.27,12941.64 5017.37,12944.73 5016.20,12948.64 5014.52,12953.13 5011.08,12957.98"/>
        <lane id=":1243857957_5_1" index="1" allow="private emergency authority army vip passenger hov taxi bus coach delivery truck trailer motorcycle evehicle custom1 custom2" speed="15.28" length="18.18" shape="5019.27,12941.64 5016.97,12944.42 5014.96,12947.62 5012.47,12951.36 5008.77,12955.76"/>
        <lane id=":1243857957_5_2" index="2" allow="private emergency authority army vip passenger hov taxi bus coach delivery truck trailer motorcycle evehicle custom1 custom2" speed="15.28" length="18.18" shape="5019.27,12941.64 5006.46,12953.55"/>
        <lane id=":1243857957_5_3" index="3" allow="private emergency authority army vip passenger hov taxi bus coach delivery truck trailer motorcycle evehicle custom1 custom2" speed="15.28" length="18.18" shape="5019.27,12941.64 5016.27,12943.71 5012.69,12945.36 5008.63,12947.57 5004.15,12951.34"/>
        <lane id=":1243857957_5_4" index="4" allow="private emergency authority army vip passenger hov taxi bus coach delivery truck trailer motorcycle evehicle custom1 custom2" speed="15.28" length="18.18" shape="5019.27,12941.64 5015.95,12943.32 5011.67,12944.12 5006.82,12945.55 5001.84,12949.12"/>
    </edge>
    <edge id=":1243857957_10" function="internal">
        <lane id=":1243857957_10_0" index="0" allow="private emergency authority army vip passenger hov taxi bus coach delivery truck trailer motorcycle evehicle custom1 custom2" speed="29.44" length="23.15" shape="5019.59,12934.91 5016.65,12940.42 5016.03,12945.92 5015.06,12951.68 5011.08,12957.98"/>
        <lane id=":1243857957_10_1" index="1" allow="private emergency authority army vip passenger hov taxi bus coach delivery truck trailer motorcycle evehicle custom1 custom2" speed="29.44" length="23.15" shape="5019.59,12934.91 5016.24,12940.13 5014.74,12944.96 5012.95,12949.98 5008.77,12955.76"/>
        <lane id=":1243857957_10_2" index="2" allow="private emergency authority army vip passenger hov taxi bus coach delivery truck trailer motorcycle evehicle custom1 custom2" speed="29.44" length="23.15" shape="5019.59,12934.91 5015.85,12939.82 5013.49,12943.95 5010.90,12948.22 5006.46,12953.55"/>
        <lane id=":1243857957_10_3" index="3" allow="private emergency authority army vip passenger hov taxi bus coach delivery truck trailer motorcycle evehicle custom1 custom2" speed="29.44" length="23.15" shape="5019.59,12934.91 5004.15,12951.34"/>
        <lane id=":1243857957_10_4" index="4" allow="private emergency authority army vip passenger hov taxi bus coach delivery truck trailer motorcycle evehicle custom1 custom2" speed="29.44" length="23.15" shape="5016.63,12933.43 5001.84,12949.12"/>
    </edge>
    <edge id=":1243857964_0" function="internal">
        <lane id=":1243857964_0_0" index="0" allow="private emergency authority army vip passenger hov taxi bus coach delivery truck trailer motorcycle evehicle custom1 custom2" speed="23.61" length="3.37" shape="4968.93,12687.80 4971.69,12689.72"/>
    </edge>
    <edge id=":1243857964_1" function="internal">
        <lane id=":1243857964_1_0" index="0" allow="private emergency authority army vip passenger hov taxi bus coach delivery truck trailer motorcycle evehicle custom1 custom2" speed="25.00" length="2.99" shape="4967.22,12690.51 4969.82,12692.22"/>
        <lane id=":1243857964_1_1" index="1" allow="private emergency authority army vip passenger hov taxi bus coach delivery truck trailer motorcycle evehicle custom1 custom2" speed="25.00" length="2.99" shape="4965.51,12693.22 4967.90,12694.78"/>
    </edge>
    <edge id=":1243857999_0" function="internal">
        <lane id=":1243857999_0_0" index="0" allow="private emergency authority army vip passenger hov taxi bus coach delivery truck trailer motorcycle evehicle custom1 custom2" speed="16.66" length="3.26" shape="5075.63,12892.00 5074.96,12892.70 5074.51,12893.19 5074.11,12893.72 5073.55,12894.51"/>
    </edge>
    <edge id=":1243857999_1" function="internal">
        <lane id=":1243857999_1_0" index="0" allow="private emergency authority army vip passenger hov taxi bus coach delivery truck trailer motorcycle evehicle custom1 custom2" speed="11.11" length="3.29" shape="5073.34,12889.76 5071.07,12892.11"/>
        <lane id=":1243857999_1_1" index="1" allow="private emergency authority army vip passenger hov taxi bus coach delivery truck trailer motorcycle evehicle custom1 custom2" speed="11.11" length="3.29" shape="5071.06,12887.52 5068.76,12889.90"/>
    </edge>
    <edge id=":2322018092_0" function="internal">
        <lane id=":2322018092_0_0" index="0" allow="private emergency authority army vip passenger hov taxi bus coach delivery truck trailer motorcycle evehicle custom1 custom2" speed="39.44" length="8.21" shape="5288.16,12636.59 5289.61,12634.67 5290.31,12633.13 5291.00,12631.58 5292.46,12629.67"/>
    </edge>
    <edge id=":2322018094_0" function="internal">
        <lane id=":2322018094_0_0" index="0" disallow="tram rail_urban rail rail_electric rail_fast ship" speed="27.78" length="14.55" shape="5289.95,12620.43 5287.30,12616.87 5285.93,12614.13 5285.00,12611.14 5283.68,12606.84"/>
        <lane id=":2322018094_0_1" index="1" disallow="tram rail_urban rail rail_electric rail_fast ship" speed="27.78" length="14.55" shape="5292.79,12618.86 5290.24,12615.43 5288.91,12612.81 5287.99,12609.95 5286.72,12605.81"/>
        <lane id=":2322018094_0_2" index="2" disallow="tram rail_urban rail rail_electric rail_fast ship" speed="27.73" length="14.55" shape="5295.64,12617.28 5293.18,12614.00 5291.88,12611.49 5290.98,12608.75 5289.75,12604.79"/>
    </edge>
    <edge id=":2322018094_3" function="internal">
        <lane id=":2322018094_3_0" index="0" allow="private emergency authority army vip passenger hov taxi bus coach delivery truck trailer motorcycle evehicle custom1 custom2" speed="10.31" length="11.05" shape="5279.79,12617.00 5281.78,12613.40 5283.09,12610.51 5283.73,12608.32 5283.68,12606.84"/>
        <lane id=":2322018094_3_1" index="1" allow="private emergency authority army vip passenger hov taxi bus coach delivery truck trailer motorcycle evehicle custom1 custom2" speed="11.48" length="13.82" shape="5282.51,12618.68 5284.82,12614.42 5286.28,12610.86 5286.92,12607.99 5286.72,12605.81"/>
        <lane id=":2322018094_3_2" index="2" allow="private emergency authority army vip passenger hov taxi bus coach delivery truck trailer motorcycle evehicle custom1 custom2" speed="12.55" length="16.60" shape="5285.24,12620.36 5287.85,12615.44 5289.47,12611.21 5290.11,12607.66 5289.75,12604.79"/>
    </edge>
    <edge id=":2322018099_0" function="internal">
        <lane id=":2322018099_0_0" index="0" disallow="tram rail_urban rail rail_electric rail_fast ship" speed="27.78" length="0.88" shape="5283.60,12606.58 5283.46,12606.17 5283.38,12605.88 5283.32,12605.59 5283.26,12605.16"/>
        <lane id=":2322018099_0_1" index="1" disallow="tram rail_urban rail rail_electric rail_fast ship" speed="27.78" length="0.88" shape="5286.63,12605.56 5286.55,12605.31 5286.50,12605.14 5286.47,12604.96 5286.43,12604.70"/>
        <lane id=":2322018099_0_2" index="2" disallow="tram rail_urban rail rail_electric rail_fast ship" speed="27.78" length="0.88" shape="5289.66,12604.54 5289.64,12604.45 5289.62,12604.40 5289.61,12604.34 5289.60,12604.25"/>
    </edge>
    <edge id=":25503936_0" function="internal">
        <lane id=":25503936_0_0" index="0" allow="private emergency authority army vip passenger hov taxi bus coach delivery truck trailer motorcycle evehicle custom1 custom2" speed="15.41" length="11.39" shape="5230.11,12720.27 5227.86,12722.83 5226.64,12724.96 5225.93,12727.24 5225.19,12730.30"/>
    </edge>
    <edge id=":25503936_1" function="internal">
        <lane id=":25503936_1_0" index="0" disallow="moped bicycle tram rail_urban rail rail_electric rail_fast ship" speed="22.22" length="11.76" shape="5227.83,12718.03 5225.76,12720.78 5224.90,12723.09 5224.03,12725.39 5221.92,12728.09"/>
        <lane id=":25503936_1_1" index="1" disallow="moped bicycle tram rail_urban rail rail_electric rail_fast ship" speed="22.22" length="11.76" shape="5225.54,12715.78 5223.50,12718.52 5222.64,12720.82 5221.78,12723.11 5219.69,12725.81"/>
    </edge>
    <edge id=":25503943_0" function="internal">
        <lane id=":25503943_0_0" index="0" allow="private emergency authority army vip passenger hov taxi bus coach delivery truck trailer motorcycle evehicle custom1 custom2" speed="22.22" length="14.64" shape="5258.60,12961.31 5260.77,12965.32 5263.12,12967.90 5265.56,12969.93 5268.02,12972.31"/>
    </edge>
    <edge id=":25503951_0" function="internal">
        <lane id=":25503951_0_0" index="0" allow="private emergency authority army vip passenger hov taxi bus coach delivery truck trailer motorcycle evehicle custom1 custom2" speed="19.45" length="4.36" shape="5114.94,12968.60 5113.65,12968.50 5112.78,12968.37 5111.91,12968.17 5110.65,12967.87"/>
    </edge>
    <edge id=":25503951_1" function="internal">
        <lane id=":25503951_1_0" index="0" allow="private emergency authority army vip passenger hov taxi bus coach delivery truck trailer motorcycle evehicle custom1 custom2" speed="16.67" length="3.72" shape="5115.16,12965.41 5114.06,12965.32 5113.32,12965.21 5112.58,12965.01 5111.53,12964.68"/>
    </edge>
    <edge id=":25503962_0" function="internal">
        <lane id=":25503962_0_0" index="0" allow="private emergency authority army vip passenger hov taxi bus coach delivery truck trailer motorcycle evehicle custom1 custom2" speed="11.11" length="8.91" shape="4968.43,12918.31 4967.24,12915.72 4964.95,12914.60 4962.64,12913.48 4961.42,12910.89"/>
        <lane id=":25503962_0_1" index="1" allow="private emergency authority army vip passenger hov taxi bus coach delivery truck trailer motorcycle evehicle custom1 custom2" speed="11.11" length="8.91" shape="4968.43,12918.31 4967.75,12915.90 4966.54,12914.46 4965.31,12913.02 4964.61,12910.61"/>
        <lane id=":25503962_0_2" index="2" allow="private emergency authority army vip passenger hov taxi bus coach delivery truck trailer motorcycle evehicle custom1 custom2" speed="11.11" length="8.91" shape="4968.43,12918.31 4967.80,12910.34"/>
        <lane id=":25503962_0_3" index="3" allow="private emergency authority army vip passenger hov taxi bus coach delivery truck trailer motorcycle evehicle custom1 custom2" speed="11.11" length="8.91" shape="4971.62,12918.08 4970.98,12910.07"/>
    </edge>
    <edge id=":25504003_0" function="internal">