<?xml version="1.0" encoding="UTF-8"?>

<!-- generated on 2023-09-14 15:11:42 by Eclipse SUMO netedit Version 1.15.0
<configuration xmlns:xsi="http://www.w3.org/2001/XMLSchema-instance" xsi:noNamespaceSchemaLocation="http://sumo.dlr.de/xsd/netconvertConfiguration.xsd">

    <input>
        <sumo-net-file value="C:\Users\Paulinho\Desktop\Master-Thesis\nodes\no_afurada.net.xml"/>
    </input>

    <output>
        <output-file value="C:\Users\Paulinho\Desktop\Master-Thesis\nodes\no_afurada.net.xml"/>
        <output.street-names value="true"/>
    </output>

    <processing>
        <geometry.min-radius.fix.railways value="false"/>
        <geometry.max-grade.fix value="false"/>
        <offset.disable-normalization value="true"/>
        <lefthand value="0"/>
    </processing>

    <junctions>
        <no-turnarounds value="true"/>
        <junctions.corner-detail value="5"/>
        <junctions.limit-turn-speed value="5.50"/>
        <rectangular-lane-cut value="0"/>
    </junctions>

    <pedestrian>
        <walkingareas value="0"/>
    </pedestrian>

    <netedit>
        <additional-files value="C:\Users\Paulinho\Desktop\Master-Thesis\nodes\no_afurada_poi.xml"/>
    </netedit>

</configuration>
-->

<net version="1.9" junctionCornerDetail="5" limitTurnSpeed="5.50" xmlns:xsi="http://www.w3.org/2001/XMLSchema-instance" xsi:noNamespaceSchemaLocation="http://sumo.dlr.de/xsd/net_file.xsd">

    <location netOffset="-524914.43,-4544541.91" convBoundary="5112.53,9864.26,5668.52,10883.89" origBoundary="-8.702913,41.051318,-8.236192,41.279522" projParameter="+proj=utm +zone=29 +ellps=WGS84 +datum=WGS84 +units=m +no_defs"/>

    <type id="highway.bridleway" priority="1" numLanes="1" speed="2.78" allow="pedestrian" oneway="1" width="2.00"/>
    <type id="highway.bus_guideway" priority="1" numLanes="1" speed="27.78" allow="bus" oneway="1"/>
    <type id="highway.cycleway" priority="1" numLanes="1" speed="5.56" allow="bicycle" oneway="0" width="1.00"/>
    <type id="highway.footway" priority="1" numLanes="1" speed="2.78" allow="pedestrian" oneway="1" width="2.00"/>
    <type id="highway.ford" priority="1" numLanes="1" speed="2.78" allow="army" oneway="0"/>
    <type id="highway.living_street" priority="2" numLanes="1" speed="2.78" disallow="tram rail_urban rail rail_electric rail_fast ship" oneway="0"/>
    <type id="highway.motorway" priority="14" numLanes="2" speed="39.44" allow="private emergency authority army vip passenger hov taxi bus coach delivery truck trailer motorcycle evehicle custom1 custom2" oneway="1"/>
    <type id="highway.motorway_link" priority="9" numLanes="1" speed="22.22" allow="private emergency authority army vip passenger hov taxi bus coach delivery truck trailer motorcycle evehicle custom1 custom2" oneway="1"/>
    <type id="highway.path" priority="1" numLanes="1" speed="5.56" allow="pedestrian bicycle" oneway="0" width="2.00"/>
    <type id="highway.pedestrian" priority="1" numLanes="1" speed="2.78" allow="pedestrian" oneway="1" width="2.00"/>
    <type id="highway.primary" priority="12" numLanes="2" speed="27.78" disallow="tram rail_urban rail rail_electric rail_fast ship" oneway="0"/>
    <type id="highway.primary_link" priority="7" numLanes="1" speed="22.22" disallow="tram rail_urban rail rail_electric rail_fast ship" oneway="0"/>
    <type id="highway.raceway" priority="15" numLanes="2" speed="83.33" allow="vip" oneway="0"/>
    <type id="highway.residential" priority="3" numLanes="1" speed="13.89" disallow="tram rail_urban rail rail_electric rail_fast ship" oneway="0"/>
    <type id="highway.secondary" priority="11" numLanes="1" speed="27.78" disallow="tram rail_urban rail rail_electric rail_fast ship" oneway="0"/>
    <type id="highway.secondary_link" priority="6" numLanes="1" speed="22.22" disallow="tram rail_urban rail rail_electric rail_fast ship" oneway="0"/>
    <type id="highway.service" priority="1" numLanes="1" speed="5.56" allow="pedestrian delivery bicycle" oneway="0"/>
    <type id="highway.stairs" priority="1" numLanes="1" speed="1.39" allow="pedestrian" oneway="1" width="2.00"/>
    <type id="highway.step" priority="1" numLanes="1" speed="1.39" allow="pedestrian" oneway="1" width="2.00"/>
    <type id="highway.steps" priority="1" numLanes="1" speed="1.39" allow="pedestrian" oneway="1" width="2.00"/>
    <type id="highway.tertiary" priority="10" numLanes="1" speed="22.22" disallow="tram rail_urban rail rail_electric rail_fast ship" oneway="0"/>
    <type id="highway.tertiary_link" priority="5" numLanes="1" speed="22.22" disallow="tram rail_urban rail rail_electric rail_fast ship" oneway="0"/>
    <type id="highway.track" priority="1" numLanes="1" speed="5.56" allow="pedestrian motorcycle moped bicycle" oneway="0"/>
    <type id="highway.trunk" priority="13" numLanes="2" speed="27.78" disallow="pedestrian bicycle tram rail_urban rail rail_electric rail_fast ship" oneway="0"/>
    <type id="highway.trunk_link" priority="8" numLanes="1" speed="22.22" disallow="pedestrian bicycle tram rail_urban rail rail_electric rail_fast ship" oneway="0"/>
    <type id="highway.unclassified" priority="4" numLanes="1" speed="13.89" disallow="tram rail_urban rail rail_electric rail_fast ship" oneway="0"/>
    <type id="highway.unsurfaced" priority="1" numLanes="1" speed="8.33" disallow="tram rail_urban rail rail_electric rail_fast ship" oneway="0"/>
    <type id="railway.highspeed" priority="21" numLanes="1" speed="69.44" allow="rail_fast" oneway="1"/>
    <type id="railway.light_rail" priority="19" numLanes="1" speed="27.78" allow="rail_urban" oneway="1"/>
    <type id="railway.preserved" priority="16" numLanes="1" speed="27.78" allow="rail" oneway="1"/>
    <type id="railway.rail" priority="20" numLanes="1" speed="44.44" allow="rail" oneway="1"/>
    <type id="railway.subway" priority="18" numLanes="1" speed="27.78" allow="rail_urban" oneway="1"/>
    <type id="railway.tram" priority="17" numLanes="1" speed="13.89" allow="tram" oneway="1"/>

    <edge id=":1145511528_0" function="internal">
        <lane id=":1145511528_0_0" index="0" allow="private emergency authority army vip passenger hov taxi bus coach delivery truck trailer motorcycle evehicle custom1 custom2" speed="22.22" length="3.09" shape="5341.24,10302.32 5340.64,10305.43"/>
        <lane id=":1145511528_0_1" index="1" allow="private emergency authority army vip passenger hov taxi bus coach delivery truck trailer motorcycle evehicle custom1 custom2" speed="22.22" length="3.09" shape="5338.09,10301.74 5337.51,10304.78"/>
        <lane id=":1145511528_0_2" index="2" allow="private emergency authority army vip passenger hov taxi bus coach delivery truck trailer motorcycle evehicle custom1 custom2" speed="22.22" length="3.09" shape="5334.94,10301.17 5334.38,10304.13"/>
    </edge>
    <edge id=":1145511528_3" function="internal">
        <lane id=":1145511528_3_0" index="0" allow="private emergency authority army vip passenger hov taxi bus coach delivery truck trailer motorcycle evehicle custom1 custom2" speed="22.22" length="3.26" shape="5344.14,10302.85 5344.09,10303.81 5344.05,10304.48 5343.96,10305.13 5343.78,10306.08"/>
    </edge>
    <edge id=":1145512768_0" function="internal">
        <lane id=":1145512768_0_0" index="0" allow="private emergency authority army vip passenger hov taxi bus coach delivery truck trailer motorcycle evehicle custom1 custom2" speed="22.22" length="2.56" shape="5396.12,10058.84 5395.45,10061.30"/>
    </edge>
    <edge id=":1145512768_1" function="internal">
        <lane id=":1145512768_1_0" index="0" allow="private emergency authority army vip passenger hov taxi bus coach delivery truck trailer motorcycle evehicle custom1 custom2" speed="22.22" length="3.00" shape="5393.06,10057.89 5392.24,10060.55"/>
        <lane id=":1145512768_1_1" index="1" allow="private emergency authority army vip passenger hov taxi bus coach delivery truck trailer motorcycle evehicle custom1 custom2" speed="22.22" length="3.00" shape="5390.01,10056.95 5389.12,10059.81"/>
        <lane id=":1145512768_1_2" index="2" allow="private emergency authority army vip passenger hov taxi bus coach delivery truck trailer motorcycle evehicle custom1 custom2" speed="22.22" length="3.00" shape="5386.95,10056.01 5386.00,10059.08"/>
    </edge>
    <edge id=":12300807-AddedOnRampNode_0" function="internal">
        <lane id=":12300807-AddedOnRampNode_0_0" index="0" allow="private emergency authority army vip passenger hov taxi bus coach delivery truck trailer motorcycle evehicle custom1 custom2" speed="22.22" length="8.00" shape="5321.92,10398.33 5320.43,10406.19"/>
        <lane id=":12300807-AddedOnRampNode_0_1" index="1" allow="private emergency authority army vip passenger hov taxi bus coach delivery truck trailer motorcycle evehicle custom1 custom2" speed="22.22" length="8.00" shape="5318.77,10397.73 5317.29,10405.59"/>
        <lane id=":12300807-AddedOnRampNode_0_2" index="2" allow="private emergency authority army vip passenger hov taxi bus coach delivery truck trailer motorcycle evehicle custom1 custom2" speed="22.22" length="8.00" shape="5315.63,10397.14 5314.14,10405.00"/>
    </edge>
    <edge id=":1534488874_0" function="internal">
        <lane id=":1534488874_0_0" index="0" allow="private emergency authority army vip passenger hov taxi bus coach delivery truck trailer motorcycle evehicle custom1 custom2" speed="22.22" length="3.39" shape="5320.01,10287.88 5320.52,10284.54"/>
    </edge>
    <edge id=":1534488874_1" function="internal">
        <lane id=":1534488874_1_0" index="0" allow="private emergency authority army vip passenger hov taxi bus coach delivery truck trailer motorcycle evehicle custom1 custom2" speed="22.22" length="3.19" shape="5323.17,10288.40 5323.77,10285.15"/>
        <lane id=":1534488874_1_1" index="1" allow="private emergency authority army vip passenger hov taxi bus coach delivery truck trailer motorcycle evehicle custom1 custom2" speed="22.22" length="3.19" shape="5326.32,10288.92 5326.90,10285.79"/>
        <lane id=":1534488874_1_2" index="2" allow="private emergency authority army vip passenger hov taxi bus coach delivery truck trailer motorcycle evehicle custom1 custom2" speed="22.22" length="3.19" shape="5329.48,10289.44 5330.04,10286.43"/>
    </edge>
    <edge id=":370332326#0-AddedOffRampNode_0" function="internal">
        <lane id=":370332326#0-AddedOffRampNode_0_0" index="0" allow="private emergency authority army vip passenger hov taxi bus coach delivery truck trailer motorcycle evehicle custom1 custom2" speed="22.22" length="8.39" shape="5246.82,10388.23 5249.34,10388.50 5251.17,10387.98 5252.97,10387.53 5255.40,10388.04"/>
        <lane id=":370332326#0-AddedOffRampNode_0_1" index="1" allow="private emergency authority army vip passenger hov taxi bus coach delivery truck trailer motorcycle evehicle custom1 custom2" speed="22.22" length="8.39" shape="5246.82,10388.23 5249.08,10388.95 5250.62,10389.49 5252.12,10390.11 5254.31,10391.05"/>
    </edge>
    <edge id=":3736054837_0" function="internal">
        <lane id=":3736054837_0_0" index="0" disallow="tram rail_urban rail rail_electric rail_fast ship" speed="27.78" length="3.59" shape="5601.88,10216.37 5601.09,10217.08 5600.50,10217.51 5599.87,10217.89 5598.96,10218.44"/>
        <lane id=":3736054837_0_1" index="1" disallow="tram rail_urban rail rail_electric rail_fast ship" speed="27.78" length="2.92" shape="5599.69,10214.04 5599.04,10214.61 5598.56,10214.96 5598.05,10215.26 5597.30,10215.70"/>
    </edge>
    <edge id=":3736054837_2" function="internal">
        <lane id=":3736054837_2_0" index="0" allow="private emergency authority army vip passenger hov taxi bus coach delivery truck trailer motorcycle evehicle custom1 custom2" speed="25.00" length="3.00" shape="5597.50,10211.70 5596.62,10214.57"/>
    </edge>
    <edge id=":3740426068_0" function="internal">
        <lane id=":3740426068_0_0" index="0" allow="private emergency authority army vip passenger hov taxi bus coach delivery truck trailer motorcycle evehicle custom1 custom2" speed="18.02" length="24.09" shape="5187.59,10091.44 5183.68,10093.17 5179.40,10096.87 5174.75,10101.81 5169.74,10107.22"/>
    </edge>
    <edge id=":3740426068_1" function="internal">
        <lane id=":3740426068_1_0" index="0" disallow="tram rail_urban rail rail_electric rail_fast ship" speed="24.79" length="22.73" shape="5180.68,10087.38 5178.71,10093.50 5176.71,10098.19 5173.96,10102.43 5169.74,10107.22"/>
        <lane id=":3740426068_1_1" index="1" disallow="tram rail_urban rail rail_electric rail_fast ship" speed="21.55" length="22.73" shape="5177.87,10085.54 5176.23,10091.67 5174.38,10096.21 5171.66,10100.29 5167.43,10105.01"/>
    </edge>
    <edge id=":3740426112_0" function="internal">
        <lane id=":3740426112_0_0" index="0" disallow="tram rail_urban rail rail_electric rail_fast ship" speed="27.78" length="0.61" shape="5127.57,10052.84 5127.64,10052.57 5127.70,10052.40 5127.78,10052.23 5127.90,10051.99"/>
        <lane id=":3740426112_0_1" index="1" disallow="tram rail_urban rail rail_electric rail_fast ship" speed="27.78" length="0.61" shape="5130.65,10053.71 5130.67,10053.63 5130.69,10053.57 5130.72,10053.51 5130.76,10053.43"/>
    </edge>
    <edge id=":3740426431_0" function="internal">
        <lane id=":3740426431_0_0" index="0" allow="private emergency authority army vip passenger hov taxi bus coach delivery truck trailer motorcycle evehicle custom1 custom2" speed="22.22" length="2.88" shape="5346.33,10407.89 5347.18,10407.94 5347.76,10408.00 5348.34,10408.11 5349.17,10408.29"/>
    </edge>
    <edge id=":3740426431_1" function="internal">
        <lane id=":3740426431_1_0" index="0" allow="private emergency authority army vip passenger hov taxi bus coach delivery truck trailer motorcycle evehicle custom1 custom2" speed="22.22" length="2.86" shape="5346.13,10411.08 5348.99,10411.14"/>
    </edge>
    <edge id=":3740426442_0" function="internal">
        <lane id=":3740426442_0_0" index="0" allow="private emergency authority army vip passenger hov taxi bus coach delivery truck trailer motorcycle evehicle custom1 custom2" speed="22.22" length="1.84" shape="5365.07,10075.26 5365.20,10074.63 5365.29,10074.19 5365.41,10073.76 5365.60,10073.14"/>
        <lane id=":3740426442_0_1" index="1" allow="private emergency authority army vip passenger hov taxi bus coach delivery truck trailer motorcycle evehicle custom1 custom2" speed="22.22" length="1.84" shape="5368.19,10075.95 5368.30,10075.42 5368.38,10075.05 5368.47,10074.69 5368.64,10074.17"/>
        <lane id=":3740426442_0_2" index="2" allow="private emergency authority army vip passenger hov taxi bus coach delivery truck trailer motorcycle evehicle custom1 custom2" speed="22.22" length="1.84" shape="5371.32,10076.64 5371.41,10076.20 5371.46,10075.91 5371.54,10075.61 5371.67,10075.19"/>
    </edge>
    <edge id=":3740426442_3" function="internal">
        <lane id=":3740426442_3_0" index="0" allow="private emergency authority army vip passenger hov taxi bus coach delivery truck trailer motorcycle evehicle custom1 custom2" speed="22.22" length="2.56" shape="5362.25,10074.64 5362.28,10073.88 5362.30,10073.36 5362.36,10072.84 5362.57,10072.12"/>
    </edge>
    <edge id=":3740426506_0" function="internal">
        <lane id=":3740426506_0_0" index="0" allow="private emergency authority army vip passenger hov taxi bus coach delivery truck trailer motorcycle evehicle custom1 custom2" speed="22.22" length="9.01" shape="5319.24,10222.54 5317.13,10220.87 5314.32,10221.29 5311.38,10221.71 5308.90,10220.03"/>
        <lane id=":3740426506_0_1" index="1" allow="private emergency authority army vip passenger hov taxi bus coach delivery truck trailer motorcycle evehicle custom1 custom2" speed="22.22" length="9.01" shape="5319.24,10222.54 5317.61,10220.75 5315.60,10220.37 5313.52,10220.04 5311.64,10218.38"/>
        <lane id=":3740426506_0_2" index="2" allow="private emergency authority army vip passenger hov taxi bus coach delivery truck trailer motorcycle evehicle custom1 custom2" speed="22.22" length="9.01" shape="5319.24,10222.54 5318.09,10220.63 5316.95,10219.56 5315.74,10218.52 5314.38,10216.73"/>
        <lane id=":3740426506_0_3" index="3" allow="private emergency authority army vip passenger hov taxi bus coach delivery truck trailer motorcycle evehicle custom1 custom2" speed="22.22" length="9.01" shape="5319.24,10222.54 5318.51,10220.35 5318.32,10218.73 5318.07,10217.14 5317.11,10215.07"/>
    </edge>
    <edge id=":3740426521_0" function="internal">
        <lane id=":3740426521_0_0" index="0" allow="private emergency authority army vip passenger hov taxi bus coach delivery truck trailer motorcycle evehicle custom1 custom2" speed="22.22" length="2.91" shape="5413.09,10208.84 5412.24,10208.94 5411.65,10209.02 5411.07,10209.13 5410.23,10209.32"/>
    </edge>
    <edge id=":3740426521_1" function="internal">
        <lane id=":3740426521_1_0" index="0" allow="private emergency authority army vip passenger hov taxi bus coach delivery truck trailer motorcycle evehicle custom1 custom2" speed="22.22" length="2.54" shape="5413.45,10211.95 5410.95,10212.43"/>
    </edge>
    <edge id=":3740426554_0" function="internal">
        <lane id=":3740426554_0_0" index="0" allow="private emergency authority army vip passenger hov taxi bus coach delivery truck trailer motorcycle evehicle custom1 custom2" speed="25.00" length="26.98" shape="5177.58,10047.58 5180.48,10054.77 5183.21,10061.93 5185.77,10068.11 5188.14,10072.37"/>
    </edge>
    <edge id=":3740426554_1" function="internal">
        <lane id=":3740426554_1_0" index="0" disallow="tram rail_urban rail rail_electric rail_fast ship" speed="27.78" length="27.06" shape="5177.58,10047.58 5180.10,10054.21 5181.72,10060.59 5182.55,10067.12 5182.66,10074.21"/>
        <lane id=":3740426554_1_1" index="1" disallow="tram rail_urban rail rail_electric rail_fast ship" speed="27.78" length="27.06" shape="5174.64,10048.86 5177.12,10055.40 5178.64,10061.60 5179.37,10067.96 5179.44,10074.96"/>
    </edge>
    <edge id=":3740426603_0" function="internal">
        <lane id=":3740426603_0_0" index="0" allow="private emergency authority army vip passenger hov taxi bus coach delivery truck trailer motorcycle evehicle custom1 custom2" speed="22.22" length="2.90" shape="5458.23,10337.00 5459.95,10334.67"/>
    </edge>
    <edge id=":3740426603_1" function="internal">
        <lane id=":3740426603_1_0" index="0" allow="private emergency authority army vip passenger hov taxi bus coach delivery truck trailer motorcycle evehicle custom1 custom2" speed="22.22" length="3.00" shape="5455.67,10335.17 5457.41,10332.73"/>
    </edge>
    <edge id=":3740426609_0" function="internal">
        <lane id=":3740426609_0_0" index="0" allow="private emergency authority army vip passenger hov taxi bus coach delivery truck trailer motorcycle evehicle custom1 custom2" speed="13.16" length="5.00" shape="5234.69,10167.63 5233.38,10166.96 5232.59,10166.33 5231.91,10165.55 5230.95,10164.41"/>
    </edge>
    <edge id=":3740426609_1" function="internal">
        <lane id=":3740426609_1_0" index="0" allow="private emergency authority army vip passenger hov taxi bus coach delivery truck trailer motorcycle evehicle custom1 custom2" speed="22.22" length="3.74" shape="5235.99,10164.71 5234.98,10164.25 5234.30,10163.90 5233.65,10163.52 5232.70,10162.94"/>
    </edge>
    <edge id=":3740426680_0" function="internal">
        <lane id=":3740426680_0_0" index="0" disallow="tram rail_urban rail rail_electric rail_fast ship" speed="27.78" length="0.71" shape="5140.85,10034.80 5141.11,10034.61 5141.28,10034.49 5141.48,10034.38 5141.76,10034.25"/>
        <lane id=":3740426680_0_1" index="1" disallow="tram rail_urban rail rail_electric rail_fast ship" speed="27.78" length="0.71" shape="5142.80,10037.34 5142.89,10037.27 5142.95,10037.23 5143.01,10037.20 5143.10,10037.15"/>
    </edge>
    <edge id=":3740426747_0" function="internal">
        <lane id=":3740426747_0_0" index="0" disallow="tram rail_urban rail rail_electric rail_fast ship" speed="27.78" length="0.37" shape="5124.40,10065.17 5124.42,10065.01 5124.44,10064.90 5124.46,10064.79 5124.49,10064.63"/>
        <lane id=":3740426747_0_1" index="1" disallow="tram rail_urban rail rail_electric rail_fast ship" speed="27.78" length="0.37" shape="5127.58,10065.54 5127.58,10065.48 5127.59,10065.45 5127.60,10065.41 5127.61,10065.36"/>
    </edge>
    <edge id=":3740426801_0" function="internal">
        <lane id=":3740426801_0_0" index="0" disallow="tram rail_urban rail rail_electric rail_fast ship" speed="27.78" length="0.71" shape="5160.08,10031.09 5160.39,10031.15 5160.60,10031.19 5160.80,10031.26 5161.09,10031.38"/>
        <lane id=":3740426801_0_1" index="1" disallow="tram rail_urban rail rail_electric rail_fast ship" speed="27.78" length="0.71" shape="5159.56,10034.25 5159.67,10034.27 5159.74,10034.29 5159.80,10034.31 5159.90,10034.35"/>
    </edge>
    <edge id=":3740426802_0" function="internal">
        <lane id=":3740426802_0_0" index="0" disallow="tram rail_urban rail rail_electric rail_fast ship" speed="16.21" length="16.30" shape="5168.67,10108.34 5164.87,10112.04 5161.88,10114.91 5159.78,10117.63 5158.67,10120.86"/>
    </edge>
    <edge id=":3740426802_1" function="internal">
        <lane id=":3740426802_1_0" index="0" disallow="tram rail_urban rail rail_electric rail_fast ship" speed="15.40" length="15.71" shape="5168.67,10108.34 5165.21,10111.68 5162.39,10113.53 5159.13,10114.53 5154.34,10115.33"/>
        <lane id=":3740426802_1_1" index="1" disallow="tram rail_urban rail rail_electric rail_fast ship" speed="11.90" length="15.71" shape="5166.36,10106.12 5163.18,10108.95 5159.93,10110.92 5156.60,10112.02 5153.20,10112.26"/>
    </edge>
    <edge id=":3740426812_0" function="internal">
        <lane id=":3740426812_0_0" index="0" disallow="tram rail_urban rail rail_electric rail_fast ship" speed="27.78" length="8.21" shape="5237.52,10397.18 5239.92,10397.41 5241.59,10397.19 5243.27,10396.96 5245.67,10397.17"/>
        <lane id=":3740426812_0_1" index="1" disallow="tram rail_urban rail rail_electric rail_fast ship" speed="27.78" length="8.21" shape="5237.52,10397.18 5239.82,10397.90 5241.29,10398.76 5242.75,10399.61 5245.06,10400.32"/>
    </edge>
    <edge id=":3740426988_0" function="internal">
        <lane id=":3740426988_0_0" index="0" allow="private emergency authority army vip passenger hov taxi bus coach delivery truck trailer motorcycle evehicle custom1 custom2" speed="22.22" length="34.64" shape="5294.32,10201.80 5286.60,10194.59 5280.66,10189.81 5274.32,10186.52 5265.41,10183.81"/>
        <lane id=":3740426988_0_1" index="1" allow="private emergency authority army vip passenger hov taxi bus coach delivery truck trailer motorcycle evehicle custom1 custom2" speed="22.22" length="33.51" shape="5295.93,10198.93 5288.57,10191.93 5283.01,10187.22 5276.97,10183.93 5268.19,10181.21"/>
        <lane id=":3740426988_0_2" index="2" allow="private emergency authority army vip passenger hov taxi bus coach delivery truck trailer motorcycle evehicle custom1 custom2" speed="22.22" length="32.15" shape="5297.53,10196.07 5289.40,10190.85 5283.06,10188.06 5277.22,10185.00 5270.60,10178.96"/>
    </edge>
    <edge id=":3740426988_3" function="internal">
        <lane id=":3740426988_3_0" index="0" allow="private emergency authority army vip passenger hov taxi bus coach delivery truck trailer motorcycle evehicle custom1 custom2" speed="22.22" length="20.63" shape="5297.53,10196.07 5292.57,10192.55 5288.85,10190.59 5284.94,10189.03 5279.41,10186.67"/>
        <lane id=":3740426988_3_1" index="1" allow="private emergency authority army vip passenger hov taxi bus coach delivery truck trailer motorcycle evehicle custom1 custom2" speed="22.22" length="20.63" shape="5299.11,10193.25 5294.08,10189.68 5290.28,10187.70 5286.30,10186.12 5280.75,10183.77"/>
    </edge>
    <edge id=":3740426991_0" function="internal">
        <lane id=":3740426991_0_0" index="0" disallow="tram rail_urban rail rail_electric rail_fast ship" speed="27.78" length="0.31" shape="5130.67,10101.83 5130.60,10101.71 5130.55,10101.63 5130.50,10101.55 5130.44,10101.42"/>
        <lane id=":3740426991_0_1" index="1" disallow="tram rail_urban rail rail_electric rail_fast ship" speed="27.78" length="0.31" shape="5133.37,10100.11 5133.35,10100.08 5133.33,10100.05 5133.32,10100.02 5133.30,10099.98"/>
    </edge>
    <edge id=":3740426996_0" function="internal">
        <lane id=":3740426996_0_0" index="0" disallow="tram rail_urban rail rail_electric rail_fast ship" speed="27.78" length="0.64" shape="5137.51,10037.48 5137.70,10037.27 5137.84,10037.13 5137.99,10037.00 5138.21,10036.83"/>
        <lane id=":3740426996_0_1" index="1" disallow="tram rail_urban rail rail_electric rail_fast ship" speed="27.78" length="0.64" shape="5139.93,10039.58 5139.99,10039.51 5140.03,10039.46 5140.08,10039.42 5140.16,10039.36"/>
    </edge>
    <edge id=":3740427017_0" function="internal">
        <lane id=":3740427017_0_0" index="0" disallow="tram rail_urban rail rail_electric rail_fast ship" speed="27.78" length="17.87" shape="5146.14,10121.40 5143.27,10116.96 5140.97,10114.14 5138.44,10111.50 5134.84,10107.59"/>
        <lane id=":3740427017_0_1" index="1" disallow="tram rail_urban rail rail_electric rail_fast ship" speed="27.78" length="17.87" shape="5148.56,10119.21 5145.69,10114.79 5143.39,10112.00 5140.85,10109.38 5137.25,10105.48"/>
    </edge>
    <edge id=":3740427017_2" function="internal">
        <lane id=":3740427017_2_0" index="0" disallow="tram rail_urban rail rail_electric rail_fast ship" speed="14.06" length="18.20" shape="5151.40,10115.36 5146.51,10114.66 5142.12,10113.13 5138.23,10110.77 5134.84,10107.59"/>
        <lane id=":3740427017_2_1" index="1" disallow="tram rail_urban rail rail_electric rail_fast ship" speed="13.62" length="18.20" shape="5153.02,10112.25 5148.15,10111.61 5143.89,10110.26 5140.26,10108.22 5137.25,10105.48"/>
    </edge>
    <edge id=":3740427305_0" function="internal">
        <lane id=":3740427305_0_0" index="0" allow="private emergency authority army vip passenger hov taxi bus coach delivery truck trailer motorcycle evehicle custom1 custom2" speed="23.69" length="46.11" shape="5351.82,10408.91 5359.01,10408.93 5371.08,10407.32 5384.71,10404.17 5396.62,10399.59"/>
    </edge>
    <edge id=":3740427305_1" function="internal">
        <lane id=":3740427305_1_0" index="0" disallow="tram rail_urban rail rail_electric rail_fast ship" speed="27.78" length="46.75" shape="5352.91,10412.66 5362.33,10411.82 5374.29,10409.97 5386.87,10406.91 5398.12,10402.42"/>
        <lane id=":3740427305_1_1" index="1" disallow="tram rail_urban rail rail_electric rail_fast ship" speed="27.78" length="46.75" shape="5354.20,10415.80 5363.65,10414.91 5375.69,10412.96 5388.34,10409.78 5399.62,10405.25"/>
    </edge>
    <edge id=":3740427322_0" function="internal">
        <lane id=":3740427322_0_0" index="0" allow="private emergency authority army vip passenger hov taxi bus coach delivery truck trailer motorcycle evehicle custom1 custom2" speed="25.00" length="3.36" shape="5421.71,10379.64 5423.97,10377.16"/>
    </edge>
    <edge id=":3740427322_1" function="internal">
        <lane id=":3740427322_1_0" index="0" disallow="tram rail_urban rail rail_electric rail_fast ship" speed="27.78" length="3.23" shape="5424.11,10381.76 5426.24,10379.27"/>
        <lane id=":3740427322_1_1" index="1" disallow="tram rail_urban rail rail_electric rail_fast ship" speed="27.78" length="3.23" shape="5426.51,10383.88 5428.58,10381.46"/>
    </edge>
    <edge id=":3740427448_0" function="internal">
        <lane id=":3740427448_0_0" index="0" allow="private emergency authority army vip passenger hov taxi bus coach delivery truck trailer motorcycle evehicle custom1 custom2" speed="22.22" length="3.27" shape="5165.25,10205.11 5162.61,10207.03"/>
    </edge>
    <edge id=":3740427448_1" function="internal">
        <lane id=":3740427448_1_0" index="0" allow="private emergency authority army vip passenger hov taxi bus coach delivery truck trailer motorcycle evehicle custom1 custom2" speed="22.22" length="3.18" shape="5163.32,10202.55 5160.83,10204.52"/>
    </edge>
    <edge id=":3740427455_0" function="internal">
        <lane id=":3740427455_0_0" index="0" allow="private emergency authority army vip passenger hov taxi bus coach delivery truck trailer motorcycle evehicle custom1 custom2" speed="22.22" length="2.94" shape="5216.36,10182.59 5213.52,10183.10"/>
        <lane id=":3740427455_0_1" index="1" allow="private emergency authority army vip passenger hov taxi bus coach delivery truck trailer motorcycle evehicle custom1 custom2" speed="22.22" length="2.94" shape="5215.85,10179.43 5212.91,10179.96"/>
    </edge>
    <edge id=":3740427455_2" function="internal">
        <lane id=":3740427455_2_0" index="0" allow="private emergency authority army vip passenger hov taxi bus coach delivery truck trailer motorcycle evehicle custom1 custom2" speed="22.22" length="3.59" shape="5215.33,10176.27 5214.42,10176.67 5213.96,10177.31 5213.51,10177.97 5212.61,10178.43"/>
    </edge>
    <edge id=":37406652-AddedOffRampNode_0" function="internal">
        <lane id=":37406652-AddedOffRampNode_0_0" index="0" allow="private emergency authority army vip passenger hov taxi bus coach delivery truck trailer motorcycle evehicle custom1 custom2" speed="22.22" length="8.20" shape="5305.72,10389.21 5305.67,10386.70 5304.87,10384.99 5304.07,10383.28 5304.02,10380.77"/>
        <lane id=":37406652-AddedOffRampNode_0_1" index="1" allow="private emergency authority army vip passenger hov taxi bus coach delivery truck trailer motorcycle evehicle custom1 custom2" speed="22.22" length="8.20" shape="5305.72,10389.21 5307.17,10381.35"/>