<?xml version="1.0" encoding="UTF-8"?>

<!-- generated on 2023-03-23 10:14:45 by Eclipse SUMO netedit Version 1.15.0
<configuration xmlns:xsi="http://www.w3.org/2001/XMLSchema-instance" xsi:noNamespaceSchemaLocation="http://sumo.dlr.de/xsd/netconvertConfiguration.xsd">

    <input>
        <sumo-net-file value="C:\Users\Paulinho\Desktop\Master-Thesis\nodes\no_amial.net.xml"/>
    </input>

    <output>
        <output-file value="C:\Users\Paulinho\Desktop\Master-Thesis\nodes\no_amial.net.xml"/>
        <output.street-names value="true"/>
    </output>

    <processing>
        <geometry.min-radius.fix.railways value="false"/>
        <geometry.max-grade.fix value="false"/>
        <offset.disable-normalization value="true"/>
        <lefthand value="0"/>
    </processing>

    <junctions>
        <no-turnarounds value="true"/>
        <junctions.corner-detail value="5"/>
        <junctions.limit-turn-speed value="5.50"/>
        <rectangular-lane-cut value="0"/>
    </junctions>

    <pedestrian>
        <walkingareas value="0"/>
    </pedestrian>

    <netedit>
        <additional-files value="C:\Users\Paulinho\Desktop\Master-Thesis\nodes\no_amial_poi.xml"/>
    </netedit>

</configuration>
-->

<net version="1.9" junctionCornerDetail="5" limitTurnSpeed="5.50" xmlns:xsi="http://www.w3.org/2001/XMLSchema-instance" xsi:noNamespaceSchemaLocation="http://sumo.dlr.de/xsd/net_file.xsd">

    <location netOffset="-524914.43,-4544541.91" convBoundary="6931.98,13466.71,8013.83,13866.43" origBoundary="-8.702913,41.051318,-8.236192,41.279522" projParameter="+proj=utm +zone=29 +ellps=WGS84 +datum=WGS84 +units=m +no_defs"/>

    <type id="highway.bridleway" priority="1" numLanes="1" speed="2.78" allow="pedestrian" oneway="1" width="2.00"/>
    <type id="highway.bus_guideway" priority="1" numLanes="1" speed="27.78" allow="bus" oneway="1"/>
    <type id="highway.cycleway" priority="1" numLanes="1" speed="5.56" allow="bicycle" oneway="0" width="1.00"/>
    <type id="highway.footway" priority="1" numLanes="1" speed="2.78" allow="pedestrian" oneway="1" width="2.00"/>
    <type id="highway.ford" priority="1" numLanes="1" speed="2.78" allow="army" oneway="0"/>
    <type id="highway.living_street" priority="2" numLanes="1" speed="2.78" disallow="tram rail_urban rail rail_electric rail_fast ship" oneway="0"/>
    <type id="highway.motorway" priority="14" numLanes="2" speed="39.44" allow="private emergency authority army vip passenger hov taxi bus coach delivery truck trailer motorcycle evehicle custom1 custom2" oneway="1"/>
    <type id="highway.motorway_link" priority="9" numLanes="1" speed="22.22" allow="private emergency authority army vip passenger hov taxi bus coach delivery truck trailer motorcycle evehicle custom1 custom2" oneway="1"/>
    <type id="highway.path" priority="1" numLanes="1" speed="5.56" allow="pedestrian bicycle" oneway="0" width="2.00"/>
    <type id="highway.pedestrian" priority="1" numLanes="1" speed="2.78" allow="pedestrian" oneway="1" width="2.00"/>
    <type id="highway.primary" priority="12" numLanes="2" speed="27.78" disallow="tram rail_urban rail rail_electric rail_fast ship" oneway="0"/>
    <type id="highway.primary_link" priority="7" numLanes="1" speed="22.22" disallow="tram rail_urban rail rail_electric rail_fast ship" oneway="0"/>
    <type id="highway.raceway" priority="15" numLanes="2" speed="83.33" allow="vip" oneway="0"/>
    <type id="highway.residential" priority="3" numLanes="1" speed="13.89" disallow="tram rail_urban rail rail_electric rail_fast ship" oneway="0"/>
    <type id="highway.secondary" priority="11" numLanes="1" speed="27.78" disallow="tram rail_urban rail rail_electric rail_fast ship" oneway="0"/>
    <type id="highway.secondary_link" priority="6" numLanes="1" speed="22.22" disallow="tram rail_urban rail rail_electric rail_fast ship" oneway="0"/>
    <type id="highway.service" priority="1" numLanes="1" speed="5.56" allow="pedestrian delivery bicycle" oneway="0"/>
    <type id="highway.stairs" priority="1" numLanes="1" speed="1.39" allow="pedestrian" oneway="1" width="2.00"/>
    <type id="highway.step" priority="1" numLanes="1" speed="1.39" allow="pedestrian" oneway="1" width="2.00"/>
    <type id="highway.steps" priority="1" numLanes="1" speed="1.39" allow="pedestrian" oneway="1" width="2.00"/>
    <type id="highway.tertiary" priority="10" numLanes="1" speed="22.22" disallow="tram rail_urban rail rail_electric rail_fast ship" oneway="0"/>
    <type id="highway.tertiary_link" priority="5" numLanes="1" speed="22.22" disallow="tram rail_urban rail rail_electric rail_fast ship" oneway="0"/>
    <type id="highway.track" priority="1" numLanes="1" speed="5.56" allow="pedestrian motorcycle moped bicycle" oneway="0"/>
    <type id="highway.trunk" priority="13" numLanes="2" speed="27.78" disallow="pedestrian bicycle tram rail_urban rail rail_electric rail_fast ship" oneway="0"/>
    <type id="highway.trunk_link" priority="8" numLanes="1" speed="22.22" disallow="pedestrian bicycle tram rail_urban rail rail_electric rail_fast ship" oneway="0"/>
    <type id="highway.unclassified" priority="4" numLanes="1" speed="13.89" disallow="tram rail_urban rail rail_electric rail_fast ship" oneway="0"/>
    <type id="highway.unsurfaced" priority="1" numLanes="1" speed="8.33" disallow="tram rail_urban rail rail_electric rail_fast ship" oneway="0"/>
    <type id="railway.highspeed" priority="21" numLanes="1" speed="69.44" allow="rail_fast" oneway="1"/>
    <type id="railway.light_rail" priority="19" numLanes="1" speed="27.78" allow="rail_urban" oneway="1"/>
    <type id="railway.preserved" priority="16" numLanes="1" speed="27.78" allow="rail" oneway="1"/>
    <type id="railway.rail" priority="20" numLanes="1" speed="44.44" allow="rail" oneway="1"/>
    <type id="railway.subway" priority="18" numLanes="1" speed="27.78" allow="rail_urban" oneway="1"/>
    <type id="railway.tram" priority="17" numLanes="1" speed="13.89" allow="tram" oneway="1"/>

    <edge id=":128560426_0" function="internal">
        <lane id=":128560426_0_0" index="0" disallow="tram rail_urban rail rail_electric rail_fast ship" speed="14.27" length="4.07" shape="7492.97,13715.02 7492.27,13716.01 7491.84,13716.72 7491.53,13717.49 7491.22,13718.65"/>
    </edge>
    <edge id=":128560426_1" function="internal">
        <lane id=":128560426_1_0" index="0" disallow="tram rail_urban rail rail_electric rail_fast ship" speed="27.78" length="6.38" shape="7488.11,13717.90 7488.60,13716.06 7488.94,13714.80 7489.15,13713.53 7489.24,13711.64"/>
    </edge>
    <edge id=":128560429_0" function="internal">
        <lane id=":128560429_0_0" index="0" disallow="tram rail_urban rail rail_electric rail_fast ship" speed="27.78" length="6.33" shape="7524.27,13609.69 7523.67,13611.48 7523.25,13612.70 7522.95,13613.95 7522.71,13615.80"/>
    </edge>
    <edge id=":128560429_1" function="internal">
        <lane id=":128560429_1_0" index="0" disallow="tram rail_urban rail rail_electric rail_fast ship" speed="18.01" length="4.10" shape="7519.28,13612.32 7520.01,13611.34 7520.47,13610.64 7520.82,13609.88 7521.21,13608.73"/>
    </edge>
    <edge id=":128571476_0" function="internal">
        <lane id=":128571476_0_0" index="0" allow="private emergency authority army vip passenger hov taxi bus coach delivery truck trailer motorcycle evehicle custom1 custom2" speed="13.89" length="5.59" shape="7575.23,13697.60 7569.58,13698.13"/>
        <lane id=":128571476_0_1" index="1" allow="private emergency authority army vip passenger hov taxi bus coach delivery truck trailer motorcycle evehicle custom1 custom2" speed="13.89" length="5.59" shape="7574.76,13694.43 7569.28,13694.94"/>
    </edge>
    <edge id=":128571476_2" function="internal">
        <lane id=":128571476_2_0" index="0" allow="private emergency authority army vip passenger hov taxi bus coach delivery truck trailer motorcycle evehicle custom1 custom2" speed="11.41" length="4.94" shape="7574.29,13691.26 7572.84,13691.50 7571.82,13691.61 7570.83,13691.51 7569.44,13691.11"/>
    </edge>
    <edge id=":128573633_0" function="internal">
        <lane id=":128573633_0_0" index="0" allow="private emergency authority army vip passenger hov taxi bus coach delivery truck trailer motorcycle evehicle custom1 custom2" speed="22.22" length="5.20" shape="7452.04,13680.63 7450.46,13680.42 7449.38,13680.29 7448.30,13680.11 7446.76,13679.75"/>
        <lane id=":128573633_0_1" index="1" allow="private emergency authority army vip passenger hov taxi bus coach delivery truck trailer motorcycle evehicle custom1 custom2" speed="22.22" length="5.20" shape="7452.52,13677.47 7451.03,13677.27 7450.01,13677.15 7449.00,13676.98 7447.54,13676.65"/>
    </edge>
    <edge id=":128573633_2" function="internal">
        <lane id=":128573633_2_0" index="0" allow="private emergency authority army vip passenger hov taxi bus coach delivery truck trailer motorcycle evehicle custom1 custom2" speed="7.18" length="4.46" shape="7452.55,13672.94 7451.41,13673.57 7450.53,13673.85 7449.60,13673.83 7448.33,13673.55"/>
    </edge>
    <edge id=":128575853_0" function="internal">
        <lane id=":128575853_0_0" index="0" allow="private emergency authority army vip passenger hov taxi bus coach delivery truck trailer motorcycle evehicle custom1 custom2" speed="22.22" length="6.90" shape="7461.70,13617.92 7463.78,13618.34 7465.18,13618.74 7466.54,13619.24 7468.54,13619.98"/>
        <lane id=":128575853_0_1" index="1" allow="private emergency authority army vip passenger hov taxi bus coach delivery truck trailer motorcycle evehicle custom1 custom2" speed="22.22" length="6.90" shape="7461.13,13621.07 7463.05,13621.46 7464.35,13621.84 7465.62,13622.31 7467.47,13623.00"/>
    </edge>
    <edge id=":128575853_2" function="internal">
        <lane id=":128575853_2_0" index="0" allow="private emergency authority army vip passenger hov taxi bus coach delivery truck trailer motorcycle evehicle custom1 custom2" speed="6.80" length="5.61" shape="7460.55,13624.21 7461.94,13624.63 7463.10,13625.33 7464.02,13626.32 7464.72,13627.59"/>
    </edge>
    <edge id=":128577510_0" function="internal">
        <lane id=":128577510_0_0" index="0" allow="private emergency authority army vip passenger hov taxi bus coach delivery truck trailer motorcycle evehicle custom1 custom2" speed="22.22" length="4.97" shape="7563.15,13623.84 7564.65,13623.62 7565.68,13623.46 7566.71,13623.34 7568.23,13623.26"/>
        <lane id=":128577510_0_1" index="1" allow="private emergency authority army vip passenger hov taxi bus coach delivery truck trailer motorcycle evehicle custom1 custom2" speed="22.22" length="4.97" shape="7563.54,13627.01 7564.96,13626.81 7565.93,13626.65 7566.90,13626.53 7568.33,13626.45"/>
    </edge>
    <edge id=":128577510_2" function="internal">
        <lane id=":128577510_2_0" index="0" allow="private emergency authority army vip passenger hov taxi bus coach delivery truck trailer motorcycle evehicle custom1 custom2" speed="7.25" length="4.26" shape="7564.68,13631.27 7565.59,13630.42 7566.33,13629.95 7567.19,13629.73 7568.44,13629.65"/>
    </edge>
    <edge id=":128577519_0" function="internal">
        <lane id=":128577519_0_0" index="0" allow="private emergency authority army vip passenger hov taxi bus coach delivery truck trailer motorcycle evehicle custom1 custom2" speed="22.22" length="48.68" shape="7794.59,13612.76 7841.09,13598.37"/>
        <lane id=":128577519_0_1" index="1" allow="private emergency authority army vip passenger hov taxi bus coach delivery truck trailer motorcycle evehicle custom1 custom2" speed="22.22" length="48.68" shape="7795.53,13615.82 7842.03,13601.43"/>
        <lane id=":128577519_0_2" index="2" allow="private emergency authority army vip passenger hov taxi bus coach delivery truck trailer motorcycle evehicle custom1 custom2" speed="22.22" length="48.68" shape="7796.47,13618.87 7842.97,13604.50"/>
    </edge>
    <edge id=":128577519_3" function="internal">
        <lane id=":128577519_3_0" index="0" allow="private emergency authority army vip passenger hov taxi bus coach delivery truck trailer motorcycle evehicle custom1 custom2" speed="22.22" length="52.23" shape="7789.49,13609.81 7797.08,13605.44 7808.32,13601.73 7822.58,13597.67 7839.21,13592.24"/>
        <lane id=":128577519_3_1" index="1" allow="private emergency authority army vip passenger hov taxi bus coach delivery truck trailer motorcycle evehicle custom1 custom2" speed="22.22" length="52.23" shape="7791.64,13612.18 7799.04,13607.92 7809.87,13604.44 7823.71,13600.62 7840.15,13595.31"/>
    </edge>
    <edge id=":128616477_0" function="internal">
        <lane id=":128616477_0_0" index="0" allow="private emergency authority army vip passenger hov taxi bus coach delivery truck trailer motorcycle evehicle custom1 custom2" speed="25.00" length="11.40" shape="7493.79,13694.86 7491.53,13692.74 7490.02,13690.90 7488.34,13689.08 7485.59,13686.99"/>
    </edge>
    <edge id=":128616477_1" function="internal">
        <lane id=":128616477_1_0" index="0" disallow="tram rail_urban rail rail_electric rail_fast ship" speed="9.44" length="11.17" shape="7493.79,13694.86 7491.95,13692.93 7490.73,13690.62 7490.12,13687.90 7490.12,13684.79"/>
    </edge>
    <edge id=":128616477_2" function="internal">
        <lane id=":128616477_2_0" index="0" allow="private emergency authority army vip passenger hov taxi bus coach delivery truck trailer motorcycle evehicle custom1 custom2" speed="8.60" length="9.48" shape="7489.43,13696.91 7489.10,13695.10 7488.06,13693.30 7486.31,13691.49 7483.86,13689.68"/>
    </edge>
    <edge id=":128616477_3" function="internal">
        <lane id=":128616477_3_0" index="0" disallow="tram rail_urban rail rail_electric rail_fast ship" speed="27.78" length="12.14" shape="7489.43,13696.91 7490.12,13684.79"/>
    </edge>
    <edge id=":128616478_0" function="internal">
        <lane id=":128616478_0_0" index="0" allow="private emergency authority army vip passenger hov taxi bus coach delivery truck trailer motorcycle evehicle custom1 custom2" speed="8.27" length="9.85" shape="7501.70,13627.58 7504.82,13627.62 7507.35,13627.15 7509.29,13626.18 7510.64,13624.71"/>
    </edge>
    <edge id=":128616478_1" function="internal">
        <lane id=":128616478_1_0" index="0" allow="private emergency authority army vip passenger hov taxi bus coach delivery truck trailer motorcycle evehicle custom1 custom2" speed="25.00" length="11.03" shape="7501.85,13630.79 7505.15,13630.69 7507.46,13630.06 7509.69,13629.45 7512.71,13629.38"/>
    </edge>
    <edge id=":128616478_2" function="internal">
        <lane id=":128616478_2_0" index="0" disallow="tram rail_urban rail rail_electric rail_fast ship" speed="27.78" length="12.05" shape="7504.26,13634.94 7510.64,13624.71"/>
    </edge>
    <edge id=":128616478_3" function="internal">
        <lane id=":128616478_3_0" index="0" disallow="tram rail_urban rail rail_electric rail_fast ship" speed="8.56" length="10.65" shape="7504.26,13634.94 7506.22,13632.33 7508.28,13630.53 7510.45,13629.55 7512.71,13629.38"/>
    </edge>
    <edge id=":128617100_0" function="internal">
        <lane id=":128617100_0_0" index="0" allow="private emergency authority army vip passenger hov taxi bus coach delivery truck trailer motorcycle evehicle custom1 custom2" speed="6.15" length="9.06" shape="7522.05,13622.77 7522.17,13625.32 7523.10,13627.06 7524.84,13628.01 7527.38,13628.16"/>
    </edge>
    <edge id=":128617100_1" function="internal">
        <lane id=":128617100_1_0" index="0" disallow="tram rail_urban rail rail_electric rail_fast ship" speed="27.78" length="14.73" shape="7522.05,13622.77 7521.78,13626.47 7521.70,13630.13 7521.82,13633.78 7522.13,13637.48"/>
    </edge>
    <edge id=":128617100_2" function="internal">
        <lane id=":128617100_2_0" index="0" allow="private emergency authority army vip passenger hov taxi bus coach delivery truck trailer motorcycle evehicle custom1 custom2" speed="25.00" length="12.08" shape="7515.75,13629.70 7518.86,13630.25 7521.32,13630.91 7523.96,13631.38 7527.65,13631.35"/>
    </edge>
    <edge id=":128617100_3" function="internal">
        <lane id=":128617100_3_0" index="0" disallow="tram rail_urban rail rail_electric rail_fast ship" speed="7.72" length="10.98" shape="7515.75,13629.70 7518.24,13630.40 7520.13,13631.93 7521.43,13634.29 7522.13,13637.48"/>
    </edge>
    <edge id=":128617101_0" function="internal">
        <lane id=":128617101_0_0" index="0" allow="private emergency authority army vip passenger hov taxi bus coach delivery truck trailer motorcycle evehicle custom1 custom2" speed="7.50" length="8.47" shape="7508.21,13702.60 7505.59,13702.28 7503.41,13702.48 7501.69,13703.19 7500.41,13704.43"/>
    </edge>
    <edge id=":128617101_1" function="internal">
        <lane id=":128617101_1_0" index="0" allow="private emergency authority army vip passenger hov taxi bus coach delivery truck trailer motorcycle evehicle custom1 custom2" speed="20.84" length="9.64" shape="7508.86,13699.47 7506.01,13699.13 7504.00,13699.18 7502.05,13699.04 7499.39,13698.13"/>
    </edge>
    <edge id=":128617101_2" function="internal">
        <lane id=":128617101_2_0" index="0" disallow="tram rail_urban rail rail_electric rail_fast ship" speed="27.78" length="11.73" shape="7506.34,13694.32 7504.88,13697.22 7503.62,13699.52 7502.24,13701.75 7500.41,13704.43"/>
    </edge>
    <edge id=":128617101_3" function="internal">
        <lane id=":128617101_3_0" index="0" disallow="tram rail_urban rail rail_electric rail_fast ship" speed="6.54" length="8.91" shape="7506.34,13694.32 7504.85,13696.69 7503.20,13698.12 7501.38,13698.60 7499.39,13698.13"/>
    </edge>
    <edge id=":13797903#1-AddedOnRampNode_0" function="internal">
        <lane id=":13797903#1-AddedOnRampNode_0_0" index="0" allow="private emergency authority army vip passenger hov taxi bus coach delivery truck trailer motorcycle evehicle custom1 custom2" speed="22.22" length="8.00" shape="7355.21,13652.99 7347.47,13650.95"/>
        <lane id=":13797903#1-AddedOnRampNode_0_1" index="1" allow="private emergency authority army vip passenger hov taxi bus coach delivery truck trailer motorcycle evehicle custom1 custom2" speed="22.22" length="8.00" shape="7356.02,13649.89 7348.29,13647.86"/>
    </edge>
    <edge id=":13797951#0-AddedOffRampNode_0" function="internal">
        <lane id=":13797951#0-AddedOffRampNode_0_0" index="0" allow="private emergency authority army vip passenger hov taxi bus coach delivery truck trailer motorcycle evehicle custom1 custom2" speed="22.22" length="8.27" shape="7360.82,13602.72 7363.33,13602.67 7365.04,13601.86 7366.75,13601.06 7369.26,13601.01"/>
        <lane id=":13797951#0-AddedOffRampNode_0_1" index="1" allow="private emergency authority army vip passenger hov taxi bus coach delivery truck trailer motorcycle evehicle custom1 custom2" speed="22.22" length="8.27" shape="7360.82,13602.72 7368.69,13604.16"/>
        <lane id=":13797951#0-AddedOffRampNode_0_2" index="2" allow="private emergency authority army vip passenger hov taxi bus coach delivery truck trailer motorcycle evehicle custom1 custom2" speed="22.22" length="8.27" shape="7360.24,13605.86 7368.11,13607.31"/>
    </edge>
    <edge id=":13797988#1-AddedOnRampNode_0" function="internal">
        <lane id=":13797988#1-AddedOnRampNode_0_0" index="0" allow="private emergency authority army vip passenger hov taxi bus coach delivery truck trailer motorcycle evehicle custom1 custom2" speed="22.22" length="8.00" shape="7663.81,13623.38 7671.80,13623.12"/>
        <lane id=":13797988#1-AddedOnRampNode_0_1" index="1" allow="private emergency authority army vip passenger hov taxi bus coach delivery truck trailer motorcycle evehicle custom1 custom2" speed="22.22" length="8.00" shape="7663.91,13626.58 7671.90,13626.32"/>
    </edge>
    <edge id=":2490198505_0" function="internal">
        <lane id=":2490198505_0_0" index="0" allow="private emergency authority army vip passenger hov taxi bus coach delivery truck trailer motorcycle evehicle custom1 custom2" speed="18.05" length="19.14" shape="7775.46,13644.62 7770.06,13646.24 7766.44,13647.58 7762.88,13649.07 7757.62,13651.14"/>
        <lane id=":2490198505_0_1" index="1" allow="private emergency authority army vip passenger hov taxi bus coach delivery truck trailer motorcycle evehicle custom1 custom2" speed="18.05" length="19.14" shape="7774.61,13641.54 7769.13,13643.18 7765.46,13644.54 7761.83,13646.05 7756.50,13648.14"/>
    </edge>
    <edge id=":2490198505_2" function="internal">
        <lane id=":2490198505_2_0" index="0" allow="private emergency authority army vip passenger hov taxi bus coach delivery truck trailer motorcycle evehicle custom1 custom2" speed="22.22" length="19.35" shape="7773.75,13638.45 7755.49,13644.95"/>
        <lane id=":2490198505_2_1" index="1" allow="private emergency authority army vip passenger hov taxi bus coach delivery truck trailer motorcycle evehicle custom1 custom2" speed="22.22" length="19.35" shape="7772.90,13635.37 7754.67,13641.86"/>
        <lane id=":2490198505_2_2" index="2" allow="private emergency authority army vip passenger hov taxi bus coach delivery truck trailer motorcycle evehicle custom1 custom2" speed="22.22" length="19.35" shape="7772.05,13632.28 7753.86,13638.77"/>
    </edge>
    <edge id=":26015913_0" function="internal">
        <lane id=":26015913_0_0" index="0" allow="private emergency authority army vip passenger hov taxi bus coach delivery truck trailer motorcycle evehicle custom1 custom2" speed="22.22" length="18.77" shape="7825.41,13630.76 7820.00,13632.64 7816.21,13633.66 7812.37,13634.54 7806.81,13635.96"/>
        <lane id=":26015913_0_1" index="1" allow="private emergency authority army vip passenger hov taxi bus coach delivery truck trailer motorcycle evehicle custom1 custom2" speed="22.22" length="18.77" shape="7824.29,13627.77 7818.96,13629.61 7815.23,13630.62 7811.44,13631.48 7805.96,13632.87"/>
        <lane id=":26015913_0_2" index="2" allow="private emergency authority army vip passenger hov taxi bus coach delivery truck trailer motorcycle evehicle custom1 custom2" speed="22.22" length="18.77" shape="7823.18,13624.77 7817.92,13626.58 7814.24,13627.57 7810.51,13628.41 7805.11,13629.79"/>
        <lane id=":26015913_0_3" index="3" allow="private emergency authority army vip passenger hov taxi bus coach delivery truck trailer motorcycle evehicle custom1 custom2" speed="22.22" length="18.77" shape="7822.06,13621.77 7816.88,13623.56 7813.25,13624.53 7809.58,13625.35 7804.26,13626.71"/>
        <lane id=":26015913_0_4" index="4" allow="private emergency authority army vip passenger hov taxi bus coach delivery truck trailer motorcycle evehicle custom1 custom2" speed="22.22" length="18.77" shape="7820.94,13618.77 7815.84,13620.53 7812.26,13621.48 7808.65,13622.29 7803.41,13623.62"/>
    </edge>
    <edge id=":26015928_0" function="internal">
        <lane id=":26015928_0_0" index="0" allow="private emergency authority army vip passenger hov taxi bus coach delivery truck trailer motorcycle evehicle custom1 custom2" speed="22.22" length="2.85" shape="7063.40,13562.42 7066.23,13562.71"/>
    </edge>
    <edge id=":26015928_1" function="internal">
        <lane id=":26015928_1_0" index="0" allow="private emergency authority army vip passenger hov taxi bus coach delivery truck trailer motorcycle evehicle custom1 custom2" speed="22.22" length="3.05" shape="7063.02,13565.60 7065.95,13565.99"/>
        <lane id=":26015928_1_1" index="1" allow="private emergency authority army vip passenger hov taxi bus coach delivery truck trailer motorcycle evehicle custom1 custom2" speed="22.22" length="3.05" shape="7062.65,13568.77 7065.67,13569.18"/>
        <lane id=":26015928_1_2" index="2" allow="private emergency authority army vip passenger hov taxi bus coach delivery truck trailer motorcycle evehicle custom1 custom2" speed="22.22" length="3.05" shape="7062.27,13571.95 7065.39,13572.38"/>
    </edge>
    <edge id=":3092784194_0" function="internal">
        <lane id=":3092784194_0_0" index="0" allow="private emergency authority army vip passenger hov taxi bus coach delivery truck trailer motorcycle evehicle custom1 custom2" speed="22.22" length="3.01" shape="7071.49,13591.74 7068.51,13591.31"/>
    </edge>
    <edge id=":3092784194_1" function="internal">
        <lane id=":3092784194_1_0" index="0" allow="private emergency authority army vip passenger hov taxi bus coach delivery truck trailer motorcycle evehicle custom1 custom2" speed="22.22" length="3.00" shape="7071.90,13588.52 7068.92,13588.13"/>
        <lane id=":3092784194_1_1" index="1" allow="private emergency authority army vip passenger hov taxi bus coach delivery truck trailer motorcycle evehicle custom1 custom2" speed="22.22" length="3.00" shape="7072.31,13585.34 7069.33,13584.96"/>
        <lane id=":3092784194_1_2" index="2" allow="private emergency authority army vip passenger hov taxi bus coach delivery truck trailer motorcycle evehicle custom1 custom2" speed="22.22" length="3.00" shape="7072.71,13582.17 7069.75,13581.79"/>
    </edge>
    <edge id=":411831032_0" function="internal">
        <lane id=":411831032_0_0" index="0" allow="private emergency authority army vip passenger hov taxi bus coach delivery truck trailer motorcycle evehicle custom1 custom2" speed="22.22" length="8.05" shape="7207.53,13576.77 7209.91,13576.79 7211.55,13576.44 7213.19,13576.13 7215.55,13576.27"/>
        <lane id=":411831032_0_1" index="1" allow="private emergency authority army vip passenger hov taxi bus coach delivery truck trailer motorcycle evehicle custom1 custom2" speed="22.22" length="8.05" shape="7207.53,13576.77 7209.81,13577.28 7211.28,13578.02 7212.75,13578.80 7215.02,13579.43"/>
    </edge>
    <edge id=":4526609655_0" function="internal">
        <lane id=":4526609655_0_0" index="0" allow="private emergency authority army vip passenger hov taxi bus coach delivery truck trailer motorcycle evehicle custom1 custom2" speed="22.22" length="8.21" shape="7243.00,13624.16 7240.60,13623.98 7238.92,13624.24 7237.25,13624.50 7234.84,13624.34"/>
    </edge>
    <edge id=":479365561-AddedOnRampNode_0" function="internal">
        <lane id=":479365561-AddedOnRampNode_0_0" index="0" allow="private emergency authority army vip passenger hov taxi bus coach delivery truck trailer motorcycle evehicle custom1 custom2" speed="22.22" length="8.00" shape="7879.36,13576.59 7881.48,13575.53 7882.89,13574.72 7884.26,13573.85 7886.28,13572.59"/>
        <lane id=":479365561-AddedOnRampNode_0_1" index="1" allow="private emergency authority army vip passenger hov taxi bus coach delivery truck trailer motorcycle evehicle custom1 custom2" speed="22.22" length="8.00" shape="7881.03,13579.34 7883.15,13578.27 7884.55,13577.46 7885.92,13576.58 7887.94,13575.33"/>
        <lane id=":479365561-AddedOnRampNode_0_2" index="2" allow="private emergency authority army vip passenger hov taxi bus coach delivery truck trailer motorcycle evehicle custom1 custom2" speed="22.22" length="8.00" shape="7882.70,13582.09 7884.81,13581.02 7886.22,13580.20 7887.59,13579.32 7889.60,13578.06"/>
        <lane id=":479365561-AddedOnRampNode_0_3" index="3" allow="private emergency authority army vip passenger hov taxi bus coach delivery truck trailer motorcycle evehicle custom1 custom2" speed="22.22" length="8.00" shape="7884.37,13584.84 7886.48,13583.76 7887.88,13582.94 7889.25,13582.06 7891.26,13580.80"/>
    </edge>
    <edge id=":479365566-AddedOffRampNode_0" function="internal">
        <lane id=":479365566-AddedOffRampNode_0_0" index="0" allow="private emergency authority army vip passenger hov taxi bus coach delivery truck trailer motorcycle evehicle custom1 custom2" speed="22.22" length="8.16" shape="7871.76,13607.52 7869.74,13609.01 7868.80,13610.65 7867.87,13612.30 7865.84,13613.79"/>
        <lane id=":479365566-AddedOffRampNode_0_1" index="1" allow="private emergency authority army vip passenger hov taxi bus coach delivery truck trailer motorcycle evehicle custom1 custom2" speed="22.22" length="8.16" shape="7871.76,13607.52 7864.50,13610.88"/>
        <lane id=":479365566-AddedOffRampNode_0_2" index="2" allow="private emergency authority army vip passenger hov taxi bus coach delivery truck trailer motorcycle evehicle custom1 custom2" speed="22.22" length="8.16" shape="7870.42,13604.62 7863.16,13607.98"/>
        <lane id=":479365566-AddedOffRampNode_0_3" index="3" allow="private emergency authority army vip passenger hov taxi bus coach delivery truck trailer motorcycle evehicle custom1 custom2" speed="22.22" length="8.16" shape="7869.08,13601.71 7861.82,13605.07"/>
        <lane id=":479365566-AddedOffRampNode_0_4" index="4" allow="private emergency authority army vip passenger hov taxi bus coach delivery truck trailer motorcycle evehicle custom1 custom2" speed="22.22" length="8.16" shape="7867.74,13598.81 7860.48,13602.16"/>
    </edge>
    <edge id=":480083543-AddedOffRampNode_0" function="internal">
        <lane id=":480083543-AddedOffRampNode_0_0" index="0" allow="private emergency authority army vip passenger hov taxi bus coach delivery truck trailer motorcycle evehicle custom1 custom2" speed="13.89" length="8.27" shape="7677.63,13678.95 7675.29,13679.86 7673.96,13681.21 7672.62,13682.55 7670.28,13683.45"/>
        <lane id=":480083543-AddedOffRampNode_0_1" index="1" allow="private emergency authority army vip passenger hov taxi bus coach delivery truck trailer motorcycle evehicle custom1 custom2" speed="13.89" length="8.27" shape="7677.63,13678.95 7669.74,13680.30"/>
        <lane id=":480083543-AddedOffRampNode_0_2" index="2" allow="private emergency authority army vip passenger hov taxi bus coach delivery truck trailer motorcycle evehicle custom1 custom2" speed="13.89" length="8.27" shape="7677.09,13675.80 7669.21,13677.14"/>
    </edge>
