<?xml version="1.0" encoding="UTF-8"?>

<!-- generated on 2023-03-18 16:50:59 by Eclipse SUMO netedit Version 1.15.0
<configuration xmlns:xsi="http://www.w3.org/2001/XMLSchema-instance" xsi:noNamespaceSchemaLocation="http://sumo.dlr.de/xsd/netconvertConfiguration.xsd">

    <input>
        <sumo-net-file value="C:\Users\Paulinho\Desktop\Master-Thesis\sumo\vci.net.xml.gz"/>
    </input>

    <output>
        <output-file value="C:\Users\Paulinho\Desktop\Master-Thesis\nodes\no_barrosa.net.xml"/>
        <output.street-names value="true"/>
    </output>

    <processing>
        <geometry.min-radius.fix.railways value="false"/>
        <geometry.max-grade.fix value="false"/>
        <offset.disable-normalization value="true"/>
        <lefthand value="0"/>
    </processing>

    <junctions>
        <no-turnarounds value="true"/>
        <junctions.corner-detail value="5"/>
        <junctions.limit-turn-speed value="5.50"/>
        <rectangular-lane-cut value="0"/>
    </junctions>

    <pedestrian>
        <walkingareas value="0"/>
    </pedestrian>

    <netedit>
        <additional-files value="C:\Users\Paulinho\Desktop\Master-Thesis\nodes\no_barrosa_poi.xml"/>
    </netedit>

</configuration>
-->

<net version="1.9" junctionCornerDetail="5" limitTurnSpeed="5.50" xmlns:xsi="http://www.w3.org/2001/XMLSchema-instance" xsi:noNamespaceSchemaLocation="http://sumo.dlr.de/xsd/net_file.xsd">

    <location netOffset="-524914.43,-4544541.91" convBoundary="6618.21,7547.04,7435.35,8100.91" origBoundary="-8.702913,41.051318,-8.236192,41.279522" projParameter="+proj=utm +zone=29 +ellps=WGS84 +datum=WGS84 +units=m +no_defs"/>

    <type id="highway.bridleway" priority="1" numLanes="1" speed="2.78" allow="pedestrian" oneway="1" width="2.00"/>
    <type id="highway.bus_guideway" priority="1" numLanes="1" speed="27.78" allow="bus" oneway="1"/>
    <type id="highway.cycleway" priority="1" numLanes="1" speed="5.56" allow="bicycle" oneway="0" width="1.00"/>
    <type id="highway.footway" priority="1" numLanes="1" speed="2.78" allow="pedestrian" oneway="1" width="2.00"/>
    <type id="highway.ford" priority="1" numLanes="1" speed="2.78" allow="army" oneway="0"/>
    <type id="highway.living_street" priority="2" numLanes="1" speed="2.78" disallow="tram rail_urban rail rail_electric rail_fast ship" oneway="0"/>
    <type id="highway.motorway" priority="14" numLanes="2" speed="39.44" allow="private emergency authority army vip passenger hov taxi bus coach delivery truck trailer motorcycle evehicle custom1 custom2" oneway="1"/>
    <type id="highway.motorway_link" priority="9" numLanes="1" speed="22.22" allow="private emergency authority army vip passenger hov taxi bus coach delivery truck trailer motorcycle evehicle custom1 custom2" oneway="1"/>
    <type id="highway.path" priority="1" numLanes="1" speed="5.56" allow="pedestrian bicycle" oneway="0" width="2.00"/>
    <type id="highway.pedestrian" priority="1" numLanes="1" speed="2.78" allow="pedestrian" oneway="1" width="2.00"/>
    <type id="highway.primary" priority="12" numLanes="2" speed="27.78" disallow="tram rail_urban rail rail_electric rail_fast ship" oneway="0"/>
    <type id="highway.primary_link" priority="7" numLanes="1" speed="22.22" disallow="tram rail_urban rail rail_electric rail_fast ship" oneway="0"/>
    <type id="highway.raceway" priority="15" numLanes="2" speed="83.33" allow="vip" oneway="0"/>
    <type id="highway.residential" priority="3" numLanes="1" speed="13.89" disallow="tram rail_urban rail rail_electric rail_fast ship" oneway="0"/>
    <type id="highway.secondary" priority="11" numLanes="1" speed="27.78" disallow="tram rail_urban rail rail_electric rail_fast ship" oneway="0"/>
    <type id="highway.secondary_link" priority="6" numLanes="1" speed="22.22" disallow="tram rail_urban rail rail_electric rail_fast ship" oneway="0"/>
    <type id="highway.service" priority="1" numLanes="1" speed="5.56" allow="pedestrian delivery bicycle" oneway="0"/>
    <type id="highway.stairs" priority="1" numLanes="1" speed="1.39" allow="pedestrian" oneway="1" width="2.00"/>
    <type id="highway.step" priority="1" numLanes="1" speed="1.39" allow="pedestrian" oneway="1" width="2.00"/>
    <type id="highway.steps" priority="1" numLanes="1" speed="1.39" allow="pedestrian" oneway="1" width="2.00"/>
    <type id="highway.tertiary" priority="10" numLanes="1" speed="22.22" disallow="tram rail_urban rail rail_electric rail_fast ship" oneway="0"/>
    <type id="highway.tertiary_link" priority="5" numLanes="1" speed="22.22" disallow="tram rail_urban rail rail_electric rail_fast ship" oneway="0"/>
    <type id="highway.track" priority="1" numLanes="1" speed="5.56" allow="pedestrian motorcycle moped bicycle" oneway="0"/>
    <type id="highway.trunk" priority="13" numLanes="2" speed="27.78" disallow="pedestrian bicycle tram rail_urban rail rail_electric rail_fast ship" oneway="0"/>
    <type id="highway.trunk_link" priority="8" numLanes="1" speed="22.22" disallow="pedestrian bicycle tram rail_urban rail rail_electric rail_fast ship" oneway="0"/>
    <type id="highway.unclassified" priority="4" numLanes="1" speed="13.89" disallow="tram rail_urban rail rail_electric rail_fast ship" oneway="0"/>
    <type id="highway.unsurfaced" priority="1" numLanes="1" speed="8.33" disallow="tram rail_urban rail rail_electric rail_fast ship" oneway="0"/>
    <type id="railway.highspeed" priority="21" numLanes="1" speed="69.44" allow="rail_fast" oneway="1"/>
    <type id="railway.light_rail" priority="19" numLanes="1" speed="27.78" allow="rail_urban" oneway="1"/>
    <type id="railway.preserved" priority="16" numLanes="1" speed="27.78" allow="rail" oneway="1"/>
    <type id="railway.rail" priority="20" numLanes="1" speed="44.44" allow="rail" oneway="1"/>
    <type id="railway.subway" priority="18" numLanes="1" speed="27.78" allow="rail_urban" oneway="1"/>
    <type id="railway.tram" priority="17" numLanes="1" speed="13.89" allow="tram" oneway="1"/>

    <edge id=":1110673494_0" function="internal">
        <lane id=":1110673494_0_0" index="0" allow="private emergency authority army vip passenger hov taxi bus coach delivery truck trailer motorcycle evehicle custom1 custom2" speed="22.22" length="3.71" shape="7264.38,7898.64 7263.29,7898.49 7262.56,7898.32 7261.84,7898.08 7260.80,7897.73"/>
    </edge>
    <edge id=":1110673494_1" function="internal">
        <lane id=":1110673494_1_0" index="0" allow="private emergency authority army vip passenger hov taxi bus coach delivery truck trailer motorcycle evehicle custom1 custom2" speed="22.22" length="3.08" shape="7264.73,7895.46 7261.67,7895.07"/>
    </edge>
    <edge id=":1110673581_0" function="internal">
        <lane id=":1110673581_0_0" index="0" allow="private emergency authority army vip passenger hov taxi bus coach delivery truck trailer motorcycle evehicle custom1 custom2" speed="14.92" length="13.50" shape="7217.44,7892.72 7214.75,7891.08 7212.00,7890.60 7208.72,7890.60 7204.45,7890.37"/>
    </edge>
    <edge id=":1110673581_1" function="internal">
        <lane id=":1110673581_1_0" index="0" allow="private emergency authority army vip passenger hov taxi bus coach delivery truck trailer motorcycle evehicle custom1 custom2" speed="22.22" length="13.82" shape="7218.51,7889.09 7204.83,7887.19"/>
    </edge>
    <edge id=":1110673649_0" function="internal">
        <lane id=":1110673649_0_0" index="0" allow="private emergency authority army vip passenger hov taxi bus coach delivery truck trailer motorcycle evehicle custom1 custom2" speed="25.00" length="2.73" shape="6896.89,7975.53 6895.94,7978.09"/>
    </edge>
    <edge id=":1110673649_1" function="internal">
        <lane id=":1110673649_1_0" index="0" disallow="tram rail_urban rail rail_electric rail_fast ship" speed="27.78" length="2.94" shape="6893.87,7974.37 6892.90,7977.07"/>
        <lane id=":1110673649_1_1" index="1" disallow="tram rail_urban rail rail_electric rail_fast ship" speed="27.78" length="2.94" shape="6890.89,7973.22 6889.87,7976.05"/>
    </edge>
    <edge id=":1110673725_0" function="internal">
        <lane id=":1110673725_0_0" index="0" allow="private emergency authority army vip passenger hov taxi bus coach delivery truck trailer motorcycle evehicle custom1 custom2" speed="22.22" length="3.35" shape="7157.98,7884.94 7154.65,7884.52"/>
    </edge>
    <edge id=":1110673725_1" function="internal">
        <lane id=":1110673725_1_0" index="0" allow="private emergency authority army vip passenger hov taxi bus coach delivery truck trailer motorcycle evehicle custom1 custom2" speed="22.22" length="3.31" shape="7158.35,7881.76 7157.37,7881.64 7156.71,7881.53 7156.06,7881.35 7155.12,7881.05"/>
    </edge>
    <edge id=":269354454_0" function="internal">
        <lane id=":269354454_0_0" index="0" allow="private emergency authority army vip passenger hov taxi bus coach delivery truck trailer motorcycle evehicle custom1 custom2" speed="23.61" length="3.29" shape="6742.83,7691.35 6743.48,7692.08 6743.95,7692.56 6744.46,7693.00 6745.23,7693.60"/>
    </edge>
    <edge id=":269354454_1" function="internal">
        <lane id=":269354454_1_0" index="0" allow="private emergency authority army vip passenger hov taxi bus coach delivery truck trailer motorcycle evehicle custom1 custom2" speed="25.00" length="3.36" shape="6740.43,7693.48 6742.66,7695.95"/>
        <lane id=":269354454_1_1" index="1" allow="private emergency authority army vip passenger hov taxi bus coach delivery truck trailer motorcycle evehicle custom1 custom2" speed="25.00" length="3.36" shape="6738.04,7695.60 6740.30,7698.11"/>
    </edge>
    <edge id=":269354459_0" function="internal">
        <lane id=":269354459_0_0" index="0" allow="private emergency authority army vip passenger hov taxi bus coach delivery truck trailer motorcycle evehicle custom1 custom2" speed="25.00" length="7.98" shape="7040.13,7845.19 7042.41,7845.46 7044.01,7845.24 7045.62,7844.97 7047.93,7845.08"/>
        <lane id=":269354459_0_1" index="1" allow="private emergency authority army vip passenger hov taxi bus coach delivery truck trailer motorcycle evehicle custom1 custom2" speed="25.00" length="7.98" shape="7039.40,7848.30 7041.75,7848.59 7043.40,7848.39 7045.06,7848.12 7047.44,7848.24"/>
    </edge>
    <edge id=":331868361#0-AddedOffRampNode_0" function="internal">
        <lane id=":331868361#0-AddedOffRampNode_0_0" index="0" allow="private emergency authority army vip passenger hov taxi bus coach delivery truck trailer motorcycle evehicle custom1 custom2" speed="22.22" length="9.25" shape="6810.93,7723.45 6813.63,7722.76 6815.11,7720.81 6816.62,7718.69 6819.43,7717.48"/>
        <lane id=":331868361#0-AddedOffRampNode_0_1" index="1" allow="private emergency authority army vip passenger hov taxi bus coach delivery truck trailer motorcycle evehicle custom1 custom2" speed="22.22" length="9.25" shape="6810.93,7723.45 6813.43,7723.24 6815.05,7722.38 6816.67,7721.38 6819.17,7720.72"/>
        <lane id=":331868361#0-AddedOffRampNode_0_2" index="2" allow="private emergency authority army vip passenger hov taxi bus coach delivery truck trailer motorcycle evehicle custom1 custom2" speed="22.22" length="9.25" shape="6810.93,7723.45 6813.30,7723.73 6814.92,7723.98 6816.54,7724.10 6818.90,7723.97"/>
    </edge>
    <edge id=":3389563082_0" function="internal">
        <lane id=":3389563082_0_0" index="0" disallow="tram rail_urban rail rail_electric rail_fast ship" speed="12.96" length="11.53" shape="6978.99,7707.12 6982.12,7705.85 6984.13,7704.59 6985.72,7702.81 6987.59,7699.98"/>
        <lane id=":3389563082_0_1" index="1" disallow="tram rail_urban rail rail_electric rail_fast ship" speed="13.39" length="12.31" shape="6978.99,7707.12 6982.58,7706.22 6985.30,7705.86 6987.58,7704.94 6989.84,7702.39"/>
    </edge>
    <edge id=":3389563082_2" function="internal">
        <lane id=":3389563082_2_0" index="0" disallow="tram rail_urban rail rail_electric rail_fast ship" speed="13.17" length="12.22" shape="6978.99,7707.12 6982.54,7705.80 6985.14,7705.14 6987.75,7705.25 6991.33,7706.25"/>
        <lane id=":3389563082_2_1" index="1" disallow="tram rail_urban rail rail_electric rail_fast ship" speed="12.58" length="12.22" shape="6980.10,7710.12 6983.33,7708.97 6985.70,7708.47 6988.08,7708.68 6991.34,7709.63"/>
    </edge>
    <edge id=":3389563087_0" function="internal">
        <lane id=":3389563087_0_0" index="0" disallow="tram rail_urban rail rail_electric rail_fast ship" speed="27.78" length="15.32" shape="6995.55,7762.01 6991.41,7763.86 6988.69,7765.37 6986.06,7767.05 6982.17,7769.41"/>
        <lane id=":3389563087_0_1" index="1" disallow="tram rail_urban rail rail_electric rail_fast ship" speed="27.78" length="15.76" shape="6995.55,7762.01 6991.11,7763.44 6987.89,7763.98 6984.76,7764.68 6980.57,7766.63"/>
    </edge>
    <edge id=":3389563087_2" function="internal">
        <lane id=":3389563087_2_0" index="0" disallow="tram rail_urban rail rail_electric rail_fast ship" speed="17.13" length="16.05" shape="6995.55,7762.01 6991.01,7763.60 6987.68,7763.99 6984.26,7763.54 6979.45,7762.56"/>
        <lane id=":3389563087_2_1" index="1" disallow="tram rail_urban rail rail_electric rail_fast ship" speed="16.64" length="16.05" shape="6994.34,7759.05 6990.05,7760.50 6986.91,7760.76 6983.68,7760.22 6979.15,7759.25"/>
    </edge>
    <edge id=":3389563088_0" function="internal">
        <lane id=":3389563088_0_0" index="0" disallow="tram rail_urban rail rail_electric rail_fast ship" speed="12.54" length="1.02" shape="7007.51,7714.90 7007.86,7715.18 7008.09,7715.39 7008.28,7715.63 7008.53,7716.01"/>
        <lane id=":3389563088_0_1" index="1" disallow="tram rail_urban rail rail_electric rail_fast ship" speed="27.78" length="1.02" shape="7005.53,7717.41 7005.65,7717.51 7005.72,7717.58 7005.79,7717.66 7005.87,7717.78"/>
    </edge>
    <edge id=":3389563089_0" function="internal">
        <lane id=":3389563089_0_0" index="0" disallow="tram rail_urban rail rail_electric rail_fast ship" speed="15.39" length="0.95" shape="7013.01,7746.43 7012.88,7746.83 7012.78,7747.10 7012.64,7747.36 7012.40,7747.71"/>
        <lane id=":3389563089_0_1" index="1" disallow="tram rail_urban rail rail_electric rail_fast ship" speed="27.78" length="0.95" shape="7009.95,7745.50 7009.91,7745.63 7009.87,7745.72 7009.82,7745.81 7009.75,7745.92"/>
    </edge>
    <edge id=":3389563091_0" function="internal">
        <lane id=":3389563091_0_0" index="0" allow="private emergency authority army vip passenger hov taxi bus coach delivery truck trailer motorcycle evehicle custom1 custom2" speed="10.22" length="9.91" shape="6958.27,7715.32 6960.91,7715.61 6962.83,7715.82 6964.57,7715.48 6966.66,7714.12"/>
        <lane id=":3389563091_0_1" index="1" allow="private emergency authority army vip passenger hov taxi bus coach delivery truck trailer motorcycle evehicle custom1 custom2" speed="11.34" length="9.91" shape="6958.37,7718.53 6961.63,7718.82 6963.98,7718.92 6966.12,7718.34 6968.70,7716.58"/>
    </edge>
    <edge id=":3389563091_2" function="internal">
        <lane id=":3389563091_2_0" index="0" disallow="tram rail_urban rail rail_electric rail_fast ship" speed="27.78" length="9.86" shape="6960.47,7722.33 6962.03,7719.67 6963.10,7717.82 6964.41,7716.17 6966.66,7714.12"/>
        <lane id=":3389563091_2_1" index="1" disallow="tram rail_urban rail rail_electric rail_fast ship" speed="27.78" length="9.86" shape="6963.19,7724.03 6964.58,7721.62 6965.53,7719.94 6966.68,7718.44 6968.70,7716.58"/>
    </edge>
    <edge id=":3970730290_0" function="internal">
        <lane id=":3970730290_0_0" index="0" allow="private emergency authority army vip passenger hov taxi bus coach delivery truck trailer motorcycle evehicle custom1 custom2" speed="25.00" length="23.37" shape="6962.85,7751.32 6959.28,7745.09 6956.57,7739.26 6954.25,7734.31 6951.83,7730.76"/>
    </edge>
    <edge id=":3970730290_1" function="internal">
        <lane id=":3970730290_1_0" index="0" disallow="tram rail_urban rail rail_electric rail_fast ship" speed="15.27" length="23.62" shape="6962.85,7751.32 6959.81,7745.71 6958.08,7740.02 6957.65,7734.25 6958.53,7728.39"/>
        <lane id=":3970730290_1_1" index="1" disallow="tram rail_urban rail rail_electric rail_fast ship" speed="15.00" length="23.62" shape="6965.51,7749.55 6962.83,7744.43 6961.37,7739.02 6961.13,7733.30 6962.12,7727.29"/>
    </edge>
    <edge id=":474423808#1-AddedOnRampNode_0" function="internal">
        <lane id=":474423808#1-AddedOnRampNode_0_0" index="0" allow="private emergency authority army vip passenger hov taxi bus coach delivery truck trailer motorcycle evehicle custom1 custom2" speed="25.00" length="8.00" shape="7197.70,7866.54 7205.63,7867.62"/>
        <lane id=":474423808#1-AddedOnRampNode_0_1" index="1" allow="private emergency authority army vip passenger hov taxi bus coach delivery truck trailer motorcycle evehicle custom1 custom2" speed="25.00" length="8.00" shape="7197.27,7869.71 7205.20,7870.80"/>
    </edge>
    <edge id=":4955227553_0" function="internal">
        <lane id=":4955227553_0_0" index="0" allow="private emergency authority army vip passenger hov taxi bus coach delivery truck trailer motorcycle evehicle custom1 custom2" speed="25.00" length="8.13" shape="6906.69,7804.04 6909.02,7804.69 6910.72,7804.79 6912.41,7804.92 6914.70,7805.67"/>
        <lane id=":4955227553_0_1" index="1" allow="private emergency authority army vip passenger hov taxi bus coach delivery truck trailer motorcycle evehicle custom1 custom2" speed="25.00" length="8.13" shape="6906.69,7804.04 6908.81,7805.15 6910.07,7806.25 6911.31,7807.39 6913.39,7808.59"/>
        <lane id=":4955227553_0_2" index="2" allow="private emergency authority army vip passenger hov taxi bus coach delivery truck trailer motorcycle evehicle custom1 custom2" speed="25.00" length="8.13" shape="6905.52,7807.01 6907.59,7808.11 6908.82,7809.20 6910.04,7810.33 6912.08,7811.51"/>
    </edge>
    <edge id=":4955227555_0" function="internal">
        <lane id=":4955227555_0_0" index="0" allow="private emergency authority army vip passenger hov taxi bus coach delivery truck trailer motorcycle evehicle custom1 custom2" speed="25.00" length="3.19" shape="7100.95,7853.33 7104.08,7853.79"/>
        <lane id=":4955227555_0_1" index="1" allow="private emergency authority army vip passenger hov taxi bus coach delivery truck trailer motorcycle evehicle custom1 custom2" speed="25.00" length="3.19" shape="7100.46,7856.49 7103.65,7856.96"/>
    </edge>
    <edge id=":4955227555_2" function="internal">
        <lane id=":4955227555_2_0" index="0" allow="private emergency authority army vip passenger hov taxi bus coach delivery truck trailer motorcycle evehicle custom1 custom2" speed="23.61" length="3.10" shape="7101.43,7850.22 7104.51,7850.62"/>
    </edge>
    <edge id=":54379553-AddedOffRampNode_0" function="internal">
        <lane id=":54379553-AddedOffRampNode_0_0" index="0" allow="private emergency authority army vip passenger hov taxi bus coach delivery truck trailer motorcycle evehicle custom1 custom2" speed="22.22" length="12.55" shape="7375.02,7909.21 7372.02,7908.28 7369.52,7907.96 7366.76,7907.94 7362.98,7907.89"/>
        <lane id=":54379553-AddedOffRampNode_0_1" index="1" allow="private emergency authority army vip passenger hov taxi bus coach delivery truck trailer motorcycle evehicle custom1 custom2" speed="22.22" length="12.55" shape="7375.02,7909.21 7372.08,7907.79 7369.70,7906.37 7366.99,7905.24 7363.10,7904.69"/>
    </edge>
    <edge id=":685192542_0" function="internal">
        <lane id=":685192542_0_0" index="0" allow="private emergency authority army vip passenger hov taxi bus coach delivery truck trailer motorcycle evehicle custom1 custom2" speed="22.22" length="8.09" shape="6905.85,7703.09 6908.21,7702.61 6909.81,7702.26 6911.43,7701.98 6913.82,7701.71"/>
    </edge>
    <edge id=":685192542_1" function="internal">
        <lane id=":685192542_1_0" index="0" allow="private emergency authority army vip passenger hov taxi bus coach delivery truck trailer motorcycle evehicle custom1 custom2" speed="18.44" length="4.61" shape="6906.45,7706.23 6907.79,7705.99 6908.73,7705.90 6909.66,7705.95 6911.02,7706.14"/>
        <lane id=":685192542_1_1" index="1" allow="private emergency authority army vip passenger hov taxi bus coach delivery truck trailer motorcycle evehicle custom1 custom2" speed="16.16" length="3.53" shape="6907.04,7709.37 6908.07,7709.19 6908.79,7709.12 6909.50,7709.16 6910.54,7709.31"/>
    </edge>
    <edge id=":685192553_0" function="internal">
        <lane id=":685192553_0_0" index="0" disallow="tram rail_urban rail rail_electric rail_fast ship" speed="14.85" length="9.47" shape="6969.73,7758.35 6967.24,7756.92 6965.73,7755.60 6964.54,7753.94 6962.96,7751.48"/>
        <lane id=":685192553_0_1" index="1" disallow="tram rail_urban rail rail_electric rail_fast ship" speed="14.28" length="9.47" shape="6972.01,7755.93 6969.69,7754.62 6968.26,7753.45 6967.10,7751.96 6965.62,7749.71"/>
    </edge>
    <edge id=":685192553_2" function="internal">
        <lane id=":685192553_2_0" index="0" disallow="tram rail_urban rail rail_electric rail_fast ship" speed="10.69" length="9.47" shape="6962.62,7759.52 6963.15,7757.05 6963.77,7755.26 6963.90,7753.59 6962.96,7751.48"/>
        <lane id=":685192553_2_1" index="1" disallow="tram rail_urban rail rail_electric rail_fast ship" speed="11.92" length="9.47" shape="6965.81,7759.83 6966.38,7756.71 6966.95,7754.46 6966.90,7752.36 6965.62,7749.71"/>
    </edge>
    <edge id=":685192577_0" function="internal">
        <lane id=":685192577_0_0" index="0" allow="private emergency authority army vip passenger hov taxi bus coach delivery truck trailer motorcycle evehicle custom1 custom2" speed="25.00" length="3.27" shape="6862.49,8010.99 6862.90,8010.11 6863.16,8009.50 6863.37,8008.87 6863.64,8007.94"/>
    </edge>
    <edge id=":685192577_1" function="internal">
        <lane id=":685192577_1_0" index="0" disallow="tram rail_urban rail rail_electric rail_fast ship" speed="27.78" length="3.61" shape="6865.38,8012.37 6866.79,8009.15"/>
        <lane id=":685192577_1_1" index="1" disallow="tram rail_urban rail rail_electric rail_fast ship" speed="27.78" length="3.61" shape="6868.27,8013.75 6869.75,8010.35"/>
    </edge>
    <edge id=":685276223_0" function="internal">
        <lane id=":685276223_0_0" index="0" allow="private emergency authority army vip passenger hov taxi bus coach delivery truck trailer motorcycle evehicle custom1 custom2" speed="39.44" length="3.46" shape="6737.83,7713.07 6736.96,7712.41 6736.38,7711.93 6735.83,7711.42 6735.06,7710.64"/>
        <lane id=":685276223_0_1" index="1" allow="private emergency authority army vip passenger hov taxi bus coach delivery truck trailer motorcycle evehicle custom1 custom2" speed="39.44" length="3.46" shape="6739.77,7710.52 6739.00,7709.94 6738.50,7709.53 6738.02,7709.08 6737.34,7708.40"/>
    </edge>
    <edge id=":685276223_2" function="internal">
        <lane id=":685276223_2_0" index="0" allow="private emergency authority army vip passenger hov taxi bus coach delivery truck trailer motorcycle evehicle custom1 custom2" speed="15.97" length="4.19" shape="6736.23,7715.18 6735.11,7714.65 6734.35,7714.25 6733.67,7713.74 6732.78,7712.88"/>
    </edge>
    <edge id=":685276291_0" function="internal">
        <lane id=":685276291_0_0" index="0" allow="private emergency authority army vip passenger hov taxi bus coach delivery truck trailer motorcycle evehicle custom1 custom2" speed="22.22" length="4.87" shape="7204.61,7969.10 7203.18,7969.33 7202.23,7969.58 7201.30,7969.93 7199.96,7970.46"/>
    </edge>
    <edge id=":685276291_1" function="internal">
        <lane id=":685276291_1_0" index="0" allow="private emergency authority army vip passenger hov taxi bus coach delivery truck trailer motorcycle evehicle custom1 custom2" speed="5.08" length="3.65" shape="7204.61,7969.10 7201.17,7969.34 7200.98,7969.28"/>
    </edge>
    <edge id=":685276291_4" function="internal">
        <lane id=":685276291_4_0" index="0" allow="private emergency authority army vip passenger hov taxi bus coach delivery truck trailer motorcycle evehicle custom1 custom2" speed="5.08" length="5.56" shape="7200.98,7969.28 7199.59,7968.85 7199.85,7967.64 7201.97,7965.70"/>
    </edge>
    <edge id=":685276291_2" function="internal">
        <lane id=":685276291_2_0" index="0" allow="private emergency authority army vip passenger hov taxi bus coach delivery truck trailer motorcycle evehicle custom1 custom2" speed="22.22" length="3.64" shape="7198.82,7967.47 7199.82,7967.08 7200.48,7966.75 7201.10,7966.35 7201.97,7965.70"/>
    </edge>
    <edge id=":685276291_3" function="internal">
        <lane id=":685276291_3_0" index="0" disallow="tram rail_urban rail rail_electric rail_fast ship" speed="3.65" length="1.44" shape="7198.82,7967.47 7200.22,7967.79"/>
    </edge>
    <edge id=":685276291_5" function="internal">
        <lane id=":685276291_5_0" index="0" disallow="tram rail_urban rail rail_electric rail_fast ship" speed="3.65" length="3.23" shape="7200.22,7967.79 7200.88,7968.40 7200.79,7969.29 7199.96,7970.46"/>
    </edge>
    <edge id=":685276345_0" function="internal">
        <lane id=":685276345_0_0" index="0" allow="private emergency authority army vip passenger hov taxi bus coach delivery truck trailer motorcycle evehicle custom1 custom2" speed="30.83" length="3.08" shape="7378.17,7910.10 7377.26,7909.97 7376.66,7909.83 7376.06,7909.61 7375.21,7909.28"/>
    </edge>
    <edge id=":685276345_1" function="internal">
        <lane id=":685276345_1_0" index="0" allow="private emergency authority army vip passenger hov taxi bus coach delivery truck trailer motorcycle evehicle custom1 custom2" speed="39.44" length="3.42" shape="7378.54,7906.92 7374.75,7906.39"/>
        <lane id=":685276345_1_1" index="1" allow="private emergency authority army vip passenger hov taxi bus coach delivery truck trailer motorcycle evehicle custom1 custom2" speed="39.44" length="3.42" shape="7378.91,7903.74 7375.93,7903.34"/>
    </edge>
    <edge id=":685276959_0" function="internal">
        <lane id=":685276959_0_0" index="0" allow="private emergency authority army vip passenger hov taxi bus coach delivery truck trailer motorcycle evehicle custom1 custom2" speed="30.83" length="2.92" shape="7046.38,7862.55 7043.50,7862.03"/>
    </edge>
    <edge id=":685276959_1" function="internal">
        <lane id=":685276959_1_0" index="0" allow="private emergency authority army vip passenger hov taxi bus coach delivery truck trailer motorcycle evehicle custom1 custom2" speed="39.44" length="2.46" shape="7046.75,7859.34 7045.98,7859.25 7045.46,7859.17 7044.94,7859.07 7044.18,7858.90"/>
        <lane id=":685276959_1_1" index="1" allow="private emergency authority army vip passenger hov taxi bus coach delivery truck trailer motorcycle evehicle custom1 custom2" speed="39.44" length="2.46" shape="7047.13,7856.16 7046.45,7856.08 7045.98,7856.01 7045.52,7855.92 7044.85,7855.78"/>
    </edge>
    <edge id=":95117787#2-AddedOnRampNode_0" function="internal">
        <lane id=":95117787#2-AddedOnRampNode_0_0" index="0" allow="private emergency authority army vip passenger hov taxi bus coach delivery truck trailer motorcycle evehicle custom1 custom2" speed="39.44" length="8.00" shape="6952.41,7834.96 6944.80,7832.50"/>
        <lane id=":95117787#2-AddedOnRampNode_0_1" index="1" allow="private emergency authority army vip passenger hov taxi bus coach delivery truck trailer motorcycle evehicle custom1 custom2" speed="39.44" length="8.00" shape="6953.39,7831.91 6945.78,7829.46"/>
    </edge>
    <edge id=":95841103#1-AddedOnRampNode_0" function="internal">
        <lane id=":95841103#1-AddedOnRampNode_0_0" index="0" allow="private emergency authority army vip passenger hov taxi bus coach delivery truck trailer motorcycle evehicle custom1 custom2" speed="39.44" length="0.32" shape="6666.66,7639.64 6666.47,7639.38"/>
        <lane id=":95841103#1-AddedOnRampNode_0_1" index="1" allow="private emergency authority army vip passenger hov taxi bus coach delivery truck trailer motorcycle evehicle custom1 custom2" speed="39.44" length="0.32" shape="6669.22,7637.72 6669.03,7637.46"/>
        <lane id=":95841103#1-AddedOnRampNode_0_2" index="2" allow="private emergency authority army vip passenger hov taxi bus coach delivery truck trailer motorcycle evehicle custom1 custom2" speed="39.44" length="0.32" shape="6671.78,7635.80 6671.60,7635.55"/>
    </edge>

    <edge id="-98835887" from="1143316916" to="685276291" name="Rua António Sampaio (Pintor)" priority="10" type="highway.tertiary" shape="7090.41,8002.21 7164.12,7982.39 7195.89,7970.30">
        <lane id="-98835887_0" index="0" disallow="tram rail_urban rail rail_electric rail_fast ship" speed="22.22" length="113.90" shape="7089.99,8000.66 7163.63,7980.87 7198.82,7967.47">
            <param key="origId" value="98835887"/>
        </lane>
    </edge>
    <edge id="1010075428" from="1110673494" to="685276291" priority="9" type="highway.motorway_link" spreadType="center" shape="7263.23,7898.51 7258.55,7897.01 7249.16,7901.76 7241.77,7910.95 7238.42,7919.46 7233.61,7945.39 7226.18,7957.46 7216.23,7965.37 7205.26,7969.01 7195.89,7970.30">
        <lane id="1010075428_0" index="0" allow="private emergency authority army vip passenger hov taxi bus coach delivery truck trailer motorcycle evehicle custom1 custom2" speed="22.22" length="99.30" shape="7260.80,7897.73 7258.55,7897.01 7249.16,7901.76 7241.77,7910.95 7238.42,7919.46 7233.61,7945.39 7226.18,7957.46 7216.23,7965.37 7205.26,7969.01 7204.61,7969.10">
            <param key="origId" value="1010075428"/>
        </lane>
    </edge>
    <edge id="1067636645" from="1110673725" to="685276959" name="Via de Cintura Interna" priority="9" type="highway.motorway_link" spreadType="center" shape="7156.74,7881.58 7143.05,7877.11 7044.73,7862.30">