<?xml version="1.0" encoding="UTF-8"?>

<!-- generated on 2023-08-21 15:04:52 by Eclipse SUMO netedit Version 1.15.0
<configuration xmlns:xsi="http://www.w3.org/2001/XMLSchema-instance" xsi:noNamespaceSchemaLocation="http://sumo.dlr.de/xsd/netconvertConfiguration.xsd">

    <input>
        <sumo-net-file value="C:\Users\Paulinho\Desktop\Master-Thesis\sumo\vci.net.xml"/>
    </input>

    <output>
        <output-file value="C:\Users\Paulinho\Desktop\Master-Thesis\nodes\no_coimbroes.net.xml"/>
        <output.street-names value="true"/>
    </output>

    <processing>
        <geometry.min-radius.fix.railways value="false"/>
        <geometry.max-grade.fix value="false"/>
        <offset.disable-normalization value="true"/>
        <lefthand value="0"/>
    </processing>

    <junctions>
        <no-turnarounds value="true"/>
        <junctions.corner-detail value="5"/>
        <junctions.limit-turn-speed value="5.50"/>
        <rectangular-lane-cut value="0"/>
    </junctions>

    <pedestrian>
        <walkingareas value="0"/>
    </pedestrian>

</configuration>
-->

<net version="1.9" junctionCornerDetail="5" limitTurnSpeed="5.50" xmlns:xsi="http://www.w3.org/2001/XMLSchema-instance" xsi:noNamespaceSchemaLocation="http://sumo.dlr.de/xsd/net_file.xsd">

    <location netOffset="-524914.43,-4544541.91" convBoundary="5637.24,6416.82,8161.99,8312.88" origBoundary="-8.702913,41.051318,-8.236192,41.279522" projParameter="+proj=utm +zone=29 +ellps=WGS84 +datum=WGS84 +units=m +no_defs"/>

    <type id="highway.bridleway" priority="1" numLanes="1" speed="2.78" allow="pedestrian" oneway="1" width="2.00"/>
    <type id="highway.bus_guideway" priority="1" numLanes="1" speed="27.78" allow="bus" oneway="1"/>
    <type id="highway.cycleway" priority="1" numLanes="1" speed="5.56" allow="bicycle" oneway="0" width="1.00"/>
    <type id="highway.footway" priority="1" numLanes="1" speed="2.78" allow="pedestrian" oneway="1" width="2.00"/>
    <type id="highway.ford" priority="1" numLanes="1" speed="2.78" allow="army" oneway="0"/>
    <type id="highway.living_street" priority="2" numLanes="1" speed="2.78" disallow="tram rail_urban rail rail_electric rail_fast ship" oneway="0"/>
    <type id="highway.motorway" priority="14" numLanes="2" speed="39.44" allow="private emergency authority army vip passenger hov taxi bus coach delivery truck trailer motorcycle evehicle custom1 custom2" oneway="1"/>
    <type id="highway.motorway_link" priority="9" numLanes="1" speed="22.22" allow="private emergency authority army vip passenger hov taxi bus coach delivery truck trailer motorcycle evehicle custom1 custom2" oneway="1"/>
    <type id="highway.path" priority="1" numLanes="1" speed="5.56" allow="pedestrian bicycle" oneway="0" width="2.00"/>
    <type id="highway.pedestrian" priority="1" numLanes="1" speed="2.78" allow="pedestrian" oneway="1" width="2.00"/>
    <type id="highway.primary" priority="12" numLanes="2" speed="27.78" disallow="tram rail_urban rail rail_electric rail_fast ship" oneway="0"/>
    <type id="highway.primary_link" priority="7" numLanes="1" speed="22.22" disallow="tram rail_urban rail rail_electric rail_fast ship" oneway="0"/>
    <type id="highway.raceway" priority="15" numLanes="2" speed="83.33" allow="vip" oneway="0"/>
    <type id="highway.residential" priority="3" numLanes="1" speed="13.89" disallow="tram rail_urban rail rail_electric rail_fast ship" oneway="0"/>
    <type id="highway.secondary" priority="11" numLanes="1" speed="27.78" disallow="tram rail_urban rail rail_electric rail_fast ship" oneway="0"/>
    <type id="highway.secondary_link" priority="6" numLanes="1" speed="22.22" disallow="tram rail_urban rail rail_electric rail_fast ship" oneway="0"/>
    <type id="highway.service" priority="1" numLanes="1" speed="5.56" allow="pedestrian delivery bicycle" oneway="0"/>
    <type id="highway.stairs" priority="1" numLanes="1" speed="1.39" allow="pedestrian" oneway="1" width="2.00"/>
    <type id="highway.step" priority="1" numLanes="1" speed="1.39" allow="pedestrian" oneway="1" width="2.00"/>
    <type id="highway.steps" priority="1" numLanes="1" speed="1.39" allow="pedestrian" oneway="1" width="2.00"/>
    <type id="highway.tertiary" priority="10" numLanes="1" speed="22.22" disallow="tram rail_urban rail rail_electric rail_fast ship" oneway="0"/>
    <type id="highway.tertiary_link" priority="5" numLanes="1" speed="22.22" disallow="tram rail_urban rail rail_electric rail_fast ship" oneway="0"/>
    <type id="highway.track" priority="1" numLanes="1" speed="5.56" allow="pedestrian motorcycle moped bicycle" oneway="0"/>
    <type id="highway.trunk" priority="13" numLanes="2" speed="27.78" disallow="pedestrian bicycle tram rail_urban rail rail_electric rail_fast ship" oneway="0"/>
    <type id="highway.trunk_link" priority="8" numLanes="1" speed="22.22" disallow="pedestrian bicycle tram rail_urban rail rail_electric rail_fast ship" oneway="0"/>
    <type id="highway.unclassified" priority="4" numLanes="1" speed="13.89" disallow="tram rail_urban rail rail_electric rail_fast ship" oneway="0"/>
    <type id="highway.unsurfaced" priority="1" numLanes="1" speed="8.33" disallow="tram rail_urban rail rail_electric rail_fast ship" oneway="0"/>
    <type id="railway.highspeed" priority="21" numLanes="1" speed="69.44" allow="rail_fast" oneway="1"/>
    <type id="railway.light_rail" priority="19" numLanes="1" speed="27.78" allow="rail_urban" oneway="1"/>
    <type id="railway.preserved" priority="16" numLanes="1" speed="27.78" allow="rail" oneway="1"/>
    <type id="railway.rail" priority="20" numLanes="1" speed="44.44" allow="rail" oneway="1"/>
    <type id="railway.subway" priority="18" numLanes="1" speed="27.78" allow="rail_urban" oneway="1"/>
    <type id="railway.tram" priority="17" numLanes="1" speed="13.89" allow="tram" oneway="1"/>

    <edge id=":118005645#1-AddedOnRampNode_0" function="internal">
        <lane id=":118005645#1-AddedOnRampNode_0_0" index="0" allow="private emergency authority army vip passenger hov taxi bus coach delivery truck trailer motorcycle evehicle custom1 custom2" speed="27.78" length="8.00" shape="6456.96,6560.16 6456.70,6568.16"/>
        <lane id=":118005645#1-AddedOnRampNode_0_1" index="1" allow="private emergency authority army vip passenger hov taxi bus coach delivery truck trailer motorcycle evehicle custom1 custom2" speed="27.78" length="8.00" shape="6453.76,6560.06 6453.50,6568.05"/>
    </edge>
    <edge id=":1257549498_0" function="internal">
        <lane id=":1257549498_0_0" index="0" allow="private emergency authority army vip passenger hov taxi bus coach delivery truck trailer motorcycle evehicle custom1 custom2" speed="22.22" length="7.90" shape="6438.35,7196.29 6436.65,7197.90 6435.72,7199.27 6434.75,7200.59 6432.95,7202.07"/>
        <lane id=":1257549498_0_1" index="1" allow="private emergency authority army vip passenger hov taxi bus coach delivery truck trailer motorcycle evehicle custom1 custom2" speed="22.22" length="7.90" shape="6438.35,7196.29 6436.39,7197.47 6434.84,7197.93 6433.26,7198.34 6431.21,7199.38"/>
    </edge>
    <edge id=":1534487964_0" function="internal">
        <lane id=":1534487964_0_0" index="0" allow="private emergency authority army vip passenger hov taxi bus coach delivery truck trailer motorcycle evehicle custom1 custom2" speed="30.83" length="4.33" shape="6269.71,7151.22 6268.54,7151.75 6267.72,7152.06 6266.88,7152.31 6265.64,7152.67"/>
    </edge>
    <edge id=":1534487964_1" function="internal">
        <lane id=":1534487964_1_0" index="0" allow="private emergency authority army vip passenger hov taxi bus coach delivery truck trailer motorcycle evehicle custom1 custom2" speed="32.22" length="3.61" shape="6268.34,7148.33 6264.86,7150.01"/>
        <lane id=":1534487964_1_1" index="1" allow="private emergency authority army vip passenger hov taxi bus coach delivery truck trailer motorcycle evehicle custom1 custom2" speed="32.22" length="3.61" shape="6266.98,7145.44 6263.95,7146.90"/>
    </edge>
    <edge id=":1534487987_0" function="internal">
        <lane id=":1534487987_0_0" index="0" allow="private emergency authority army vip passenger hov taxi bus coach delivery truck trailer motorcycle evehicle custom1 custom2" speed="23.61" length="3.01" shape="5953.01,7375.37 5950.80,7377.42"/>
    </edge>
    <edge id=":1534487987_1" function="internal">
        <lane id=":1534487987_1_0" index="0" allow="private emergency authority army vip passenger hov taxi bus coach delivery truck trailer motorcycle evehicle custom1 custom2" speed="25.00" length="2.60" shape="5950.66,7373.12 5948.69,7375.02"/>
        <lane id=":1534487987_1_1" index="1" allow="private emergency authority army vip passenger hov taxi bus coach delivery truck trailer motorcycle evehicle custom1 custom2" speed="25.00" length="2.60" shape="5948.35,7370.91 5946.57,7372.62"/>
    </edge>
    <edge id=":1534488074_0" function="internal">
        <lane id=":1534488074_0_0" index="0" allow="private emergency authority army vip passenger hov taxi bus coach delivery truck trailer motorcycle evehicle custom1 custom2" speed="22.22" length="6.87" shape="6500.90,6948.52 6499.02,6949.19 6497.91,6950.05 6496.83,6951.01 6495.05,6951.99"/>
    </edge>
    <edge id=":1534488116_0" function="internal">
        <lane id=":1534488116_0_0" index="0" allow="private emergency authority army vip passenger hov taxi bus coach delivery truck trailer motorcycle evehicle custom1 custom2" speed="16.66" length="9.01" shape="6439.30,7036.64 6439.66,7034.17 6439.79,7032.46 6439.70,7030.75 6439.40,7028.27"/>
        <lane id=":1534488116_0_1" index="1" allow="private emergency authority army vip passenger hov taxi bus coach delivery truck trailer motorcycle evehicle custom1 custom2" speed="16.66" length="9.01" shape="6439.30,7036.64 6440.19,7033.97 6441.43,7032.26 6442.42,7030.54 6442.58,7027.86"/>
    </edge>
    <edge id=":1534488131_0" function="internal">
        <lane id=":1534488131_0_0" index="0" allow="private emergency authority army vip passenger hov taxi bus coach delivery truck trailer motorcycle evehicle custom1 custom2" speed="16.66" length="6.67" shape="6384.19,7064.80 6386.04,7065.30 6387.41,7065.22 6388.81,7065.02 6390.77,7065.20"/>
    </edge>
    <edge id=":1658039989_0" function="internal">
        <lane id=":1658039989_0_0" index="0" allow="private emergency authority army vip passenger hov taxi bus coach delivery truck trailer motorcycle evehicle custom1 custom2" speed="22.22" length="3.27" shape="6227.93,7305.24 6224.64,7305.62"/>
        <lane id=":1658039989_0_1" index="1" allow="private emergency authority army vip passenger hov taxi bus coach delivery truck trailer motorcycle evehicle custom1 custom2" speed="22.22" length="3.27" shape="6227.53,7302.06 6224.31,7302.44"/>
    </edge>
    <edge id=":1658039989_2" function="internal">
        <lane id=":1658039989_2_0" index="0" allow="private emergency authority army vip passenger hov taxi bus coach delivery truck trailer motorcycle evehicle custom1 custom2" speed="22.22" length="3.13" shape="6227.07,7298.80 6223.98,7299.26"/>
    </edge>
    <edge id=":26016523_0" function="internal">
        <lane id=":26016523_0_0" index="0" allow="private emergency authority army vip passenger hov taxi bus coach delivery truck trailer motorcycle evehicle custom1 custom2" speed="8.79" length="3.13" shape="6505.41,7034.97 6506.29,7034.67 6506.92,7034.49 6507.55,7034.45 6508.45,7034.58"/>
        <lane id=":26016523_0_1" index="1" allow="private emergency authority army vip passenger hov taxi bus coach delivery truck trailer motorcycle evehicle custom1 custom2" speed="6.28" length="1.50" shape="6506.35,7038.03 6507.82,7037.71"/>
    </edge>
    <edge id=":26016523_2" function="internal">
        <lane id=":26016523_2_0" index="0" allow="private emergency authority army vip passenger hov taxi bus coach delivery truck trailer motorcycle evehicle custom1 custom2" speed="25.00" length="3.16" shape="6507.29,7041.09 6510.41,7040.21"/>
        <lane id=":26016523_2_1" index="1" allow="private emergency authority army vip passenger hov taxi bus coach delivery truck trailer motorcycle evehicle custom1 custom2" speed="25.00" length="3.16" shape="6508.23,7044.14 6511.20,7043.31"/>
    </edge>
    <edge id=":263872202_0" function="internal">
        <lane id=":263872202_0_0" index="0" allow="private emergency authority army vip passenger hov taxi bus coach delivery truck trailer motorcycle evehicle custom1 custom2" speed="25.00" length="3.21" shape="6440.39,6765.62 6440.36,6762.41"/>
        <lane id=":263872202_0_1" index="1" allow="private emergency authority army vip passenger hov taxi bus coach delivery truck trailer motorcycle evehicle custom1 custom2" speed="25.00" length="3.21" shape="6443.59,6765.59 6443.56,6762.39"/>
    </edge>
    <edge id=":263872202_2" function="internal">
        <lane id=":263872202_2_0" index="0" allow="private emergency authority army vip passenger hov taxi bus coach delivery truck trailer motorcycle evehicle custom1 custom2" speed="23.61" length="3.23" shape="6436.94,6765.64 6437.07,6764.69 6437.14,6764.04 6437.16,6763.38 6437.16,6762.42"/>
    </edge>
    <edge id=":263872720_0" function="internal">
        <lane id=":263872720_0_0" index="0" allow="private emergency authority army vip passenger hov taxi bus coach delivery truck trailer motorcycle evehicle custom1 custom2" speed="20.84" length="2.86" shape="6455.35,6779.47 6455.40,6782.32"/>
    </edge>
    <edge id=":263872720_1" function="internal">
        <lane id=":263872720_1_0" index="0" allow="private emergency authority army vip passenger hov taxi bus coach delivery truck trailer motorcycle evehicle custom1 custom2" speed="32.22" length="3.02" shape="6452.15,6779.47 6452.16,6782.44"/>
        <lane id=":263872720_1_1" index="1" allow="private emergency authority army vip passenger hov taxi bus coach delivery truck trailer motorcycle evehicle custom1 custom2" speed="32.22" length="3.02" shape="6448.95,6779.48 6448.97,6782.55"/>
    </edge>
    <edge id=":263872761_0" function="internal">
        <lane id=":263872761_0_0" index="0" allow="private emergency authority army vip passenger hov taxi bus coach delivery truck trailer motorcycle evehicle custom1 custom2" speed="22.22" length="8.01" shape="6262.46,7290.28 6260.25,7291.08 6258.84,7291.97 6257.43,7292.82 6255.19,7293.50"/>
    </edge>
    <edge id=":263874803_0" function="internal">
        <lane id=":263874803_0_0" index="0" allow="private emergency authority army vip passenger hov taxi bus coach delivery truck trailer motorcycle evehicle custom1 custom2" speed="23.61" length="3.11" shape="6177.70,7177.16 6180.35,7175.53"/>
    </edge>
    <edge id=":263874803_1" function="internal">
        <lane id=":263874803_1_0" index="0" allow="private emergency authority army vip passenger hov taxi bus coach delivery truck trailer motorcycle evehicle custom1 custom2" speed="25.00" length="3.13" shape="6179.29,7179.94 6182.01,7178.39"/>
        <lane id=":263874803_1_1" index="1" allow="private emergency authority army vip passenger hov taxi bus coach delivery truck trailer motorcycle evehicle custom1 custom2" speed="25.00" length="3.13" shape="6180.87,7182.72 6183.59,7181.18"/>
    </edge>
    <edge id=":269351987_0" function="internal">
        <lane id=":269351987_0_0" index="0" allow="private emergency authority army vip passenger hov taxi bus coach delivery truck trailer motorcycle evehicle custom1 custom2" speed="25.00" length="7.75" shape="6501.86,7207.19 6502.57,7209.28 6503.46,7210.57 6504.41,7211.83 6505.34,7213.86"/>
        <lane id=":269351987_0_1" index="1" allow="private emergency authority army vip passenger hov taxi bus coach delivery truck trailer motorcycle evehicle custom1 custom2" speed="25.00" length="7.75" shape="6498.73,7207.87 6499.47,7210.06 6500.37,7211.41 6501.34,7212.74 6502.30,7214.87"/>
    </edge>
    <edge id=":269351989_0" function="internal">
        <lane id=":269351989_0_0" index="0" allow="private emergency authority army vip passenger hov taxi bus coach delivery truck trailer motorcycle evehicle custom1 custom2" speed="16.00" length="3.53" shape="6524.67,7261.08 6524.84,7262.11 6525.02,7262.81 6525.30,7263.47 6525.78,7264.40"/>
    </edge>
    <edge id=":269351989_1" function="internal">
        <lane id=":269351989_1_0" index="0" allow="private emergency authority army vip passenger hov taxi bus coach delivery truck trailer motorcycle evehicle custom1 custom2" speed="25.00" length="4.12" shape="6521.41,7262.41 6521.78,7263.49 6522.07,7264.21 6522.42,7264.91 6522.96,7265.91"/>
        <lane id=":269351989_1_1" index="1" allow="private emergency authority army vip passenger hov taxi bus coach delivery truck trailer motorcycle evehicle custom1 custom2" speed="25.00" length="4.12" shape="6518.37,7263.41 6518.79,7264.65 6519.13,7265.48 6519.53,7266.28 6520.15,7267.43"/>
    </edge>
    <edge id=":269352411_0" function="internal">
        <lane id=":269352411_0_0" index="0" allow="private emergency authority army vip passenger hov taxi bus coach delivery truck trailer motorcycle evehicle custom1 custom2" speed="25.00" length="3.09" shape="6706.98,7008.12 6704.04,7009.07"/>
    </edge>
    <edge id=":269352411_1" function="internal">
        <lane id=":269352411_1_0" index="0" allow="private emergency authority army vip passenger hov taxi bus coach delivery truck trailer motorcycle evehicle custom1 custom2" speed="27.78" length="3.13" shape="6706.07,7005.05 6703.05,7005.93"/>
        <lane id=":269352411_1_1" index="1" allow="private emergency authority army vip passenger hov taxi bus coach delivery truck trailer motorcycle evehicle custom1 custom2" speed="27.78" length="3.13" shape="6705.16,7001.98 6702.18,7002.85"/>
    </edge>
    <edge id=":269352571_0" function="internal">
        <lane id=":269352571_0_0" index="0" allow="private emergency authority army vip passenger hov taxi bus coach delivery truck trailer motorcycle evehicle custom1 custom2" speed="25.00" length="3.00" shape="6689.99,6988.57 6692.89,6987.69"/>
        <lane id=":269352571_0_1" index="1" allow="private emergency authority army vip passenger hov taxi bus coach delivery truck trailer motorcycle evehicle custom1 custom2" speed="25.00" length="3.00" shape="6690.93,6991.62 6693.78,6990.77"/>
    </edge>
    <edge id=":269352571_2" function="internal">
        <lane id=":269352571_2_0" index="0" allow="private emergency authority army vip passenger hov taxi bus coach delivery truck trailer motorcycle evehicle custom1 custom2" speed="20.84" length="3.09" shape="6689.05,6985.53 6692.00,6984.62"/>
    </edge>
    <edge id=":269352919_0" function="internal">
        <lane id=":269352919_0_0" index="0" allow="private emergency authority army vip passenger hov taxi bus coach delivery truck trailer motorcycle evehicle custom1 custom2" speed="16.67" length="12.87" shape="6426.71,7091.66 6428.09,7088.23 6429.14,7085.91 6430.05,7083.55 6431.01,7079.99"/>
        <lane id=":269352919_0_1" index="1" allow="private emergency authority army vip passenger hov taxi bus coach delivery truck trailer motorcycle evehicle custom1 custom2" speed="16.67" length="12.87" shape="6429.71,7092.77 6431.14,7089.22 6432.21,7086.83 6433.14,7084.38 6434.13,7080.71"/>
        <lane id=":269352919_0_2" index="2" allow="private emergency authority army vip passenger hov taxi bus coach delivery truck trailer motorcycle evehicle custom1 custom2" speed="16.67" length="12.87" shape="6432.71,7093.88 6434.18,7090.22 6435.28,7087.75 6436.23,7085.22 6437.25,7081.43"/>
    </edge>
    <edge id=":269352958_0" function="internal">
        <lane id=":269352958_0_0" index="0" allow="private emergency authority army vip passenger hov taxi bus coach delivery truck trailer motorcycle evehicle custom1 custom2" speed="19.45" length="4.16" shape="6462.38,7341.81 6461.42,7341.03 6460.80,7340.46 6460.22,7339.84 6459.38,7338.93"/>
        <lane id=":269352958_0_1" index="1" allow="private emergency authority army vip passenger hov taxi bus coach delivery truck trailer motorcycle evehicle custom1 custom2" speed="19.45" length="3.67" shape="6464.37,7339.30 6463.52,7338.61 6462.97,7338.10 6462.46,7337.56 6461.73,7336.76"/>
    </edge>
    <edge id=":269352958_2" function="internal">
        <lane id=":269352958_2_0" index="0" allow="private emergency authority army vip passenger hov taxi bus coach delivery truck trailer motorcycle evehicle custom1 custom2" speed="16.67" length="2.95" shape="6466.35,7336.79 6463.89,7334.74"/>
        <lane id=":269352958_2_1" index="1" allow="private emergency authority army vip passenger hov taxi bus coach delivery truck trailer motorcycle evehicle custom1 custom2" speed="16.67" length="2.95" shape="6468.34,7334.28 6466.25,7332.56"/>
    </edge>
    <edge id=":269353121_0" function="internal">
        <lane id=":269353121_0_0" index="0" allow="private emergency authority army vip passenger hov taxi bus coach delivery truck trailer motorcycle evehicle custom1 custom2" speed="19.45" length="11.19" shape="6401.58,7154.29 6406.36,7144.18"/>
    </edge>
    <edge id=":269353121_1" function="internal">
        <lane id=":269353121_1_0" index="0" allow="private emergency authority army vip passenger hov taxi bus coach delivery truck trailer motorcycle evehicle custom1 custom2" speed="16.67" length="3.62" shape="6407.91,7149.24 6408.20,7148.12 6408.44,7147.35 6408.75,7146.61 6409.25,7145.56"/>
        <lane id=":269353121_1_1" index="1" allow="private emergency authority army vip passenger hov taxi bus coach delivery truck trailer motorcycle evehicle custom1 custom2" speed="16.67" length="3.62" shape="6411.01,7150.04 6411.26,7149.09 6411.46,7148.45 6411.72,7147.83 6412.13,7146.94"/>
    </edge>
    <edge id=":269354111_0" function="internal">
        <lane id=":269354111_0_0" index="0" allow="private emergency authority army vip passenger hov taxi bus coach delivery truck trailer motorcycle evehicle custom1 custom2" speed="25.00" length="7.25" shape="6422.74,7067.42 6429.68,7064.97"/>
        <lane id=":269354111_0_1" index="1" allow="private emergency authority army vip passenger hov taxi bus coach delivery truck trailer motorcycle evehicle custom1 custom2" speed="25.00" length="7.25" shape="6423.88,7070.41 6430.62,7068.03"/>
    </edge>
    <edge id=":269354111_2" function="internal">
        <lane id=":269354111_2_0" index="0" allow="private emergency authority army vip passenger hov taxi bus coach delivery truck trailer motorcycle evehicle custom1 custom2" speed="23.61" length="8.24" shape="6421.86,7065.12 6423.78,7063.40 6424.68,7061.64 6425.65,7060.06 6427.80,7058.85"/>
        <lane id=":269354111_2_1" index="1" allow="private emergency authority army vip passenger hov taxi bus coach delivery truck trailer motorcycle evehicle custom1 custom2" speed="23.61" length="8.24" shape="6421.86,7065.12 6423.80,7063.96 6425.16,7063.21 6426.59,7062.61 6428.74,7061.91"/>
    </edge>
    <edge id=":269354112_0" function="internal">
        <lane id=":269354112_0_0" index="0" allow="private emergency authority army vip passenger hov taxi bus coach delivery truck trailer motorcycle evehicle custom1 custom2" speed="19.45" length="2.83" shape="6437.20,7049.87 6437.69,7047.08"/>
    </edge>
    <edge id=":269354112_1" function="internal">
        <lane id=":269354112_1_0" index="0" allow="private emergency authority army vip passenger hov taxi bus coach delivery truck trailer motorcycle evehicle custom1 custom2" speed="16.67" length="3.00" shape="6440.34,7050.47 6440.86,7047.57"/>
        <lane id=":269354112_1_1" index="1" allow="private emergency authority army vip passenger hov taxi bus coach delivery truck trailer motorcycle evehicle custom1 custom2" speed="16.67" length="3.00" shape="6443.49,7051.08 6444.02,7048.06"/>
    </edge>
    <edge id=":269354449_0" function="internal">
        <lane id=":269354449_0_0" index="0" allow="private emergency authority army vip passenger hov taxi bus coach delivery truck trailer motorcycle evehicle custom1 custom2" speed="19.45" length="0.10" shape="6633.38,7464.42 6633.44,7464.47"/>
        <lane id=":269354449_0_1" index="1" allow="private emergency authority army vip passenger hov taxi bus coach delivery truck trailer motorcycle evehicle custom1 custom2" speed="19.45" length="0.10" shape="6630.56,7465.94 6630.58,7465.90"/>
        <lane id=":269354449_0_2" index="2" allow="private emergency authority army vip passenger hov taxi bus coach delivery truck trailer motorcycle evehicle custom1 custom2" speed="19.45" length="0.10" shape="6627.74,7467.46 6627.72,7467.33"/>
    </edge>
    <edge id=":332930861-AddedOnRampNode_0" function="internal">
        <lane id=":332930861-AddedOnRampNode_0_0" index="0" allow="private emergency authority army vip passenger hov taxi bus coach delivery truck trailer motorcycle evehicle custom1 custom2" speed="22.22" length="8.00" shape="6130.03,7309.10 6122.07,7309.94"/>
    </edge>
    <edge id=":3400529705_0" function="internal">
        <lane id=":3400529705_0_0" index="0" allow="private emergency authority army vip passenger hov taxi bus coach delivery truck trailer motorcycle evehicle custom1 custom2" speed="33.61" length="8.09" shape="6423.54,7084.98 6421.41,7086.11 6420.34,7087.59 6419.27,7089.11 6417.19,7090.37"/>
        <lane id=":3400529705_0_1" index="1" allow="private emergency authority army vip passenger hov taxi bus coach delivery truck trailer motorcycle evehicle custom1 custom2" speed="33.61" length="8.09" shape="6423.54,7084.98 6416.13,7087.35"/>
        <lane id=":3400529705_0_2" index="2" allow="private emergency authority army vip passenger hov taxi bus coach delivery truck trailer motorcycle evehicle custom1 custom2" speed="33.61" length="8.09" shape="6422.65,7081.91 6415.06,7084.33"/>
    </edge>
    <edge id=":415566508#1-AddedOnRampNode_0" function="internal">
        <lane id=":415566508#1-AddedOnRampNode_0_0" index="0" allow="private emergency authority army vip passenger hov taxi bus coach delivery truck trailer motorcycle evehicle custom1 custom2" speed="25.00" length="8.00" shape="6783.70,6961.42 6791.38,6959.19"/>
        <lane id=":415566508#1-AddedOnRampNode_0_1" index="1" allow="private emergency authority army vip passenger hov taxi bus coach delivery truck trailer motorcycle evehicle custom1 custom2" speed="25.00" length="8.00" shape="6784.59,6964.49 6792.27,6962.27"/>
    </edge>
    <edge id=":4449523990_0" function="internal">
        <lane id=":4449523990_0_0" index="0" allow="private emergency authority army vip passenger hov taxi bus coach delivery truck trailer motorcycle evehicle custom1 custom2" speed="26.39" length="0.30" shape="6454.86,6624.38 6454.85,6624.69"/>
        <lane id=":4449523990_0_1" index="1" allow="private emergency authority army vip passenger hov taxi bus coach delivery truck trailer motorcycle evehicle custom1 custom2" speed="26.39" length="0.30" shape="6451.67,6624.28 6451.66,6624.57"/>
    </edge>
    <edge id=":4449523991_0" function="internal">
        <lane id=":4449523991_0_0" index="0" allow="private emergency authority army vip passenger hov taxi bus coach delivery truck trailer motorcycle evehicle custom1 custom2" speed="25.00" length="8.18" shape="6452.16,6694.34 6452.57,6696.76 6453.63,6698.28 6454.71,6699.80 6455.22,6702.22"/>
        <lane id=":4449523991_0_1" index="1" allow="private emergency authority army vip passenger hov taxi bus coach delivery truck trailer motorcycle evehicle custom1 custom2" speed="25.00" length="8.18" shape="6452.16,6694.34 6452.02,6702.22"/>
        <lane id=":4449523991_0_2" index="2" allow="private emergency authority army vip passenger hov taxi bus coach delivery truck trailer motorcycle evehicle custom1 custom2" speed="25.00" length="8.18" shape="6448.97,6694.22 6448.82,6702.23"/>
    </edge>
    <edge id=":4565928477_0" function="internal">
        <lane id=":4565928477_0_0" index="0" allow="private emergency authority army vip passenger hov taxi bus coach delivery truck trailer motorcycle evehicle custom1 custom2" speed="25.00" length="8.21" shape="6488.59,7139.05 6489.36,7141.34 6490.25,7142.78 6491.13,7144.23 6491.89,7146.52"/>
        <lane id=":4565928477_0_1" index="1" allow="private emergency authority army vip passenger hov taxi bus coach delivery truck trailer motorcycle evehicle custom1 custom2" speed="25.00" length="8.21" shape="6488.59,7139.05 6488.87,7141.44 6488.69,7143.12 6488.49,7144.81 6488.76,7147.21"/>
        <lane id=":4565928477_0_2" index="2" allow="private emergency authority army vip passenger hov taxi bus coach delivery truck trailer motorcycle evehicle custom1 custom2" speed="25.00" length="8.21" shape="6485.47,7139.75 6485.75,7142.14 6485.56,7143.82 6485.37,7145.50 6485.64,7147.89"/>
    </edge>
    <edge id=":460986053-AddedOffRampNode_0" function="internal">
        <lane id=":460986053-AddedOffRampNode_0_0" index="0" allow="private emergency authority army vip passenger hov taxi bus coach delivery truck trailer motorcycle evehicle custom1 custom2" speed="25.00" length="8.27" shape="6093.17,7235.69 6094.88,7233.86 6095.49,7232.07 6096.10,7230.28 6097.81,7228.44"/>
        <lane id=":460986053-AddedOffRampNode_0_1" index="1" allow="private emergency authority army vip passenger hov taxi bus coach delivery truck trailer motorcycle evehicle custom1 custom2" speed="25.00" length="8.27" shape="6093.17,7235.69 6099.67,7231.04"/>
        <lane id=":460986053-AddedOffRampNode_0_2" index="2" allow="private emergency authority army vip passenger hov taxi bus coach delivery truck trailer motorcycle evehicle custom1 custom2" speed="25.00" length="8.27" shape="6095.03,7238.30 6101.54,7233.65"/>
    </edge>
    <edge id=":4683840062_0" function="internal">