<?xml version="1.0" encoding="UTF-8"?>

<!-- generated on 2023-09-14 15:24:21 by Eclipse SUMO netedit Version 1.15.0
<configuration xmlns:xsi="http://www.w3.org/2001/XMLSchema-instance" xsi:noNamespaceSchemaLocation="http://sumo.dlr.de/xsd/netconvertConfiguration.xsd">

    <input>
        <sumo-net-file value="C:\Users\Paulinho\Desktop\Master-Thesis\nodes\no_continente.net.xml"/>
    </input>

    <output>
        <output-file value="C:\Users\Paulinho\Desktop\Master-Thesis\nodes\no_continente.net.xml"/>
        <output.street-names value="true"/>
    </output>

    <processing>
        <geometry.min-radius.fix.railways value="false"/>
        <geometry.max-grade.fix value="false"/>
        <offset.disable-normalization value="true"/>
        <lefthand value="0"/>
    </processing>

    <junctions>
        <no-turnarounds value="true"/>
        <junctions.corner-detail value="5"/>
        <junctions.limit-turn-speed value="5.50"/>
        <rectangular-lane-cut value="0"/>
    </junctions>

    <pedestrian>
        <walkingareas value="0"/>
    </pedestrian>

    <netedit>
        <additional-files value="C:\Users\Paulinho\Desktop\Master-Thesis\nodes\no_continente_poi.xml"/>
    </netedit>

</configuration>
-->

<net version="1.9" junctionCornerDetail="5" limitTurnSpeed="5.50" xmlns:xsi="http://www.w3.org/2001/XMLSchema-instance" xsi:noNamespaceSchemaLocation="http://sumo.dlr.de/xsd/net_file.xsd">

    <location netOffset="-524914.43,-4544541.91" convBoundary="6353.59,7264.01,6803.93,7711.87" origBoundary="-8.702913,41.051318,-8.236192,41.279522" projParameter="+proj=utm +zone=29 +ellps=WGS84 +datum=WGS84 +units=m +no_defs"/>

    <type id="highway.bridleway" priority="1" numLanes="1" speed="2.78" allow="pedestrian" oneway="1" width="2.00"/>
    <type id="highway.bus_guideway" priority="1" numLanes="1" speed="27.78" allow="bus" oneway="1"/>
    <type id="highway.cycleway" priority="1" numLanes="1" speed="5.56" allow="bicycle" oneway="0" width="1.00"/>
    <type id="highway.footway" priority="1" numLanes="1" speed="2.78" allow="pedestrian" oneway="1" width="2.00"/>
    <type id="highway.ford" priority="1" numLanes="1" speed="2.78" allow="army" oneway="0"/>
    <type id="highway.living_street" priority="2" numLanes="1" speed="2.78" disallow="tram rail_urban rail rail_electric rail_fast ship" oneway="0"/>
    <type id="highway.motorway" priority="14" numLanes="2" speed="39.44" allow="private emergency authority army vip passenger hov taxi bus coach delivery truck trailer motorcycle evehicle custom1 custom2" oneway="1"/>
    <type id="highway.motorway_link" priority="9" numLanes="1" speed="22.22" allow="private emergency authority army vip passenger hov taxi bus coach delivery truck trailer motorcycle evehicle custom1 custom2" oneway="1"/>
    <type id="highway.path" priority="1" numLanes="1" speed="5.56" allow="pedestrian bicycle" oneway="0" width="2.00"/>
    <type id="highway.pedestrian" priority="1" numLanes="1" speed="2.78" allow="pedestrian" oneway="1" width="2.00"/>
    <type id="highway.primary" priority="12" numLanes="2" speed="27.78" disallow="tram rail_urban rail rail_electric rail_fast ship" oneway="0"/>
    <type id="highway.primary_link" priority="7" numLanes="1" speed="22.22" disallow="tram rail_urban rail rail_electric rail_fast ship" oneway="0"/>
    <type id="highway.raceway" priority="15" numLanes="2" speed="83.33" allow="vip" oneway="0"/>
    <type id="highway.residential" priority="3" numLanes="1" speed="13.89" disallow="tram rail_urban rail rail_electric rail_fast ship" oneway="0"/>
    <type id="highway.secondary" priority="11" numLanes="1" speed="27.78" disallow="tram rail_urban rail rail_electric rail_fast ship" oneway="0"/>
    <type id="highway.secondary_link" priority="6" numLanes="1" speed="22.22" disallow="tram rail_urban rail rail_electric rail_fast ship" oneway="0"/>
    <type id="highway.service" priority="1" numLanes="1" speed="5.56" allow="pedestrian delivery bicycle" oneway="0"/>
    <type id="highway.stairs" priority="1" numLanes="1" speed="1.39" allow="pedestrian" oneway="1" width="2.00"/>
    <type id="highway.step" priority="1" numLanes="1" speed="1.39" allow="pedestrian" oneway="1" width="2.00"/>
    <type id="highway.steps" priority="1" numLanes="1" speed="1.39" allow="pedestrian" oneway="1" width="2.00"/>
    <type id="highway.tertiary" priority="10" numLanes="1" speed="22.22" disallow="tram rail_urban rail rail_electric rail_fast ship" oneway="0"/>
    <type id="highway.tertiary_link" priority="5" numLanes="1" speed="22.22" disallow="tram rail_urban rail rail_electric rail_fast ship" oneway="0"/>
    <type id="highway.track" priority="1" numLanes="1" speed="5.56" allow="pedestrian motorcycle moped bicycle" oneway="0"/>
    <type id="highway.trunk" priority="13" numLanes="2" speed="27.78" disallow="pedestrian bicycle tram rail_urban rail rail_electric rail_fast ship" oneway="0"/>
    <type id="highway.trunk_link" priority="8" numLanes="1" speed="22.22" disallow="pedestrian bicycle tram rail_urban rail rail_electric rail_fast ship" oneway="0"/>
    <type id="highway.unclassified" priority="4" numLanes="1" speed="13.89" disallow="tram rail_urban rail rail_electric rail_fast ship" oneway="0"/>
    <type id="highway.unsurfaced" priority="1" numLanes="1" speed="8.33" disallow="tram rail_urban rail rail_electric rail_fast ship" oneway="0"/>
    <type id="railway.highspeed" priority="21" numLanes="1" speed="69.44" allow="rail_fast" oneway="1"/>
    <type id="railway.light_rail" priority="19" numLanes="1" speed="27.78" allow="rail_urban" oneway="1"/>
    <type id="railway.preserved" priority="16" numLanes="1" speed="27.78" allow="rail" oneway="1"/>
    <type id="railway.rail" priority="20" numLanes="1" speed="44.44" allow="rail" oneway="1"/>
    <type id="railway.subway" priority="18" numLanes="1" speed="27.78" allow="rail_urban" oneway="1"/>
    <type id="railway.tram" priority="17" numLanes="1" speed="13.89" allow="tram" oneway="1"/>

    <edge id=":1147305344_0" function="internal">
        <lane id=":1147305344_0_0" index="0" disallow="tram rail_urban rail rail_electric rail_fast ship" speed="20.84" length="15.45" shape="6547.61,7591.76 6544.26,7592.50 6541.15,7593.50 6537.54,7594.64 6532.70,7595.76"/>
    </edge>
    <edge id=":1147305344_1" function="internal">
        <lane id=":1147305344_1_0" index="0" disallow="tram rail_urban rail rail_electric rail_fast ship" speed="10.06" length="15.48" shape="6544.37,7585.93 6543.05,7589.51 6540.66,7592.35 6537.22,7594.43 6532.70,7595.76"/>
        <lane id=":1147305344_1_1" index="1" disallow="tram rail_urban rail rail_electric rail_fast ship" speed="9.56" length="15.48" shape="6541.72,7582.76 6540.52,7586.50 6538.51,7589.39 6535.71,7591.43 6532.10,7592.62"/>
    </edge>
    <edge id=":1147305620_0" function="internal">
        <lane id=":1147305620_0_0" index="0" disallow="tram rail_urban rail rail_electric rail_fast ship" speed="10.61" length="9.69" shape="6687.62,7543.37 6686.28,7540.94 6685.47,7538.49 6685.18,7536.02 6685.43,7533.54"/>
        <lane id=":1147305620_0_1" index="1" disallow="tram rail_urban rail rail_electric rail_fast ship" speed="9.95" length="9.69" shape="6691.00,7542.66 6689.65,7540.33 6688.80,7538.14 6688.43,7536.09 6688.56,7534.18"/>
    </edge>
    <edge id=":1147305620_2" function="internal">
        <lane id=":1147305620_2_0" index="0" disallow="tram rail_urban rail rail_electric rail_fast ship" speed="15.52" length="9.64" shape="6680.41,7540.67 6682.21,7538.71 6683.61,7537.42 6684.66,7535.97 6685.43,7533.54"/>
        <lane id=":1147305620_2_1" index="1" disallow="tram rail_urban rail rail_electric rail_fast ship" speed="16.75" length="9.64" shape="6682.92,7542.65 6684.99,7540.35 6686.55,7538.79 6687.70,7537.04 6688.56,7534.18"/>
    </edge>
    <edge id=":1147305736_0" function="internal">
        <lane id=":1147305736_0_0" index="0" allow="private emergency authority army vip passenger hov taxi bus coach delivery truck trailer motorcycle evehicle custom1 custom2" speed="23.61" length="3.23" shape="6634.89,7543.89 6635.27,7544.77 6635.54,7545.37 6635.86,7545.94 6636.35,7546.77"/>
    </edge>
    <edge id=":1147305736_1" function="internal">
        <lane id=":1147305736_1_0" index="0" allow="private emergency authority army vip passenger hov taxi bus coach delivery truck trailer motorcycle evehicle custom1 custom2" speed="25.00" length="3.52" shape="6631.93,7545.43 6633.61,7548.42"/>
        <lane id=":1147305736_1_1" index="1" allow="private emergency authority army vip passenger hov taxi bus coach delivery truck trailer motorcycle evehicle custom1 custom2" speed="25.00" length="3.52" shape="6629.10,7546.93 6630.88,7550.08"/>
    </edge>
    <edge id=":1147305760_0" function="internal">
        <lane id=":1147305760_0_0" index="0" disallow="tram rail_urban rail rail_electric rail_fast ship" speed="27.78" length="16.94" shape="6705.53,7550.03 6700.09,7550.97 6695.86,7551.68 6692.37,7552.56 6689.17,7554.04"/>
    </edge>
    <edge id=":1147305760_1" function="internal">
        <lane id=":1147305760_1_0" index="0" disallow="tram rail_urban rail rail_electric rail_fast ship" speed="13.28" length="15.63" shape="6705.53,7550.03 6700.83,7550.76 6697.46,7550.61 6694.32,7549.36 6690.29,7546.81"/>
        <lane id=":1147305760_1_1" index="1" disallow="tram rail_urban rail rail_electric rail_fast ship" speed="9.73" length="15.63" shape="6704.92,7546.89 6700.38,7547.37 6696.60,7546.90 6693.57,7545.49 6691.31,7543.14"/>
    </edge>
    <edge id=":1147305927_0" function="internal">
        <lane id=":1147305927_0_0" index="0" allow="private emergency authority army vip passenger hov taxi bus coach delivery truck trailer motorcycle evehicle custom1 custom2" speed="26.66" length="3.11" shape="6563.03,7445.96 6561.81,7443.10"/>
    </edge>
    <edge id=":1147305927_1" function="internal">
        <lane id=":1147305927_1_0" index="0" allow="private emergency authority army vip passenger hov taxi bus coach delivery truck trailer motorcycle evehicle custom1 custom2" speed="39.44" length="3.09" shape="6566.02,7444.54 6564.71,7441.74"/>
        <lane id=":1147305927_1_1" index="1" allow="private emergency authority army vip passenger hov taxi bus coach delivery truck trailer motorcycle evehicle custom1 custom2" speed="39.44" length="3.09" shape="6568.91,7443.18 6567.61,7440.39"/>
    </edge>
    <edge id=":1147306087_0" function="internal">
        <lane id=":1147306087_0_0" index="0" disallow="tram rail_urban rail rail_electric rail_fast ship" speed="13.98" length="10.15" shape="6718.51,7546.48 6715.73,7546.45 6713.75,7546.36 6711.91,7546.68 6709.54,7547.93"/>
        <lane id=":1147306087_0_1" index="1" disallow="tram rail_urban rail rail_electric rail_fast ship" speed="15.17" length="10.15" shape="6718.34,7543.28 6715.06,7543.29 6712.73,7543.27 6710.57,7543.74 6707.78,7545.26"/>
    </edge>
    <edge id=":1147306087_2" function="internal">
        <lane id=":1147306087_2_0" index="0" disallow="tram rail_urban rail rail_electric rail_fast ship" speed="10.95" length="10.32" shape="6715.62,7539.35 6714.84,7542.46 6713.83,7544.49 6712.20,7546.09 6709.54,7547.93"/>
        <lane id=":1147306087_2_1" index="1" disallow="tram rail_urban rail rail_electric rail_fast ship" speed="10.29" length="10.32" shape="6712.75,7537.46 6712.12,7540.23 6711.36,7542.10 6710.05,7543.60 6707.78,7545.26"/>
    </edge>
    <edge id=":1147306180_0" function="internal">
        <lane id=":1147306180_0_0" index="0" allow="private emergency authority army vip passenger hov taxi bus coach delivery truck trailer motorcycle evehicle custom1 custom2" speed="13.89" length="10.82" shape="6519.80,7568.93 6522.07,7566.64 6523.38,7564.78 6524.28,7562.72 6525.34,7559.84"/>
    </edge>
    <edge id=":1147306180_1" function="internal">
        <lane id=":1147306180_1_0" index="0" disallow="tram rail_urban rail rail_electric rail_fast ship" speed="9.95" length="10.88" shape="6519.80,7568.93 6522.35,7566.94 6524.91,7565.66 6527.49,7565.07 6530.08,7565.19"/>
        <lane id=":1147306180_1_1" index="1" disallow="tram rail_urban rail rail_electric rail_fast ship" speed="9.53" length="10.88" shape="6521.97,7571.28 6524.05,7569.76 6526.36,7568.83 6528.91,7568.48 6531.68,7568.72"/>
    </edge>
    <edge id=":1147306406_0" function="internal">
        <lane id=":1147306406_0_0" index="0" disallow="tram rail_urban rail rail_electric rail_fast ship" speed="13.89" length="12.06" shape="6508.04,7580.43 6511.08,7578.80 6513.06,7577.44 6514.65,7575.67 6516.50,7572.78"/>
        <lane id=":1147306406_0_1" index="1" disallow="tram rail_urban rail rail_electric rail_fast ship" speed="13.89" length="12.06" shape="6510.38,7582.82 6513.60,7581.04 6515.65,7579.52 6517.29,7577.55 6519.24,7574.44"/>
    </edge>
    <edge id=":1147306406_2" function="internal">
        <lane id=":1147306406_2_0" index="0" disallow="tram rail_urban rail rail_electric rail_fast ship" speed="10.28" length="12.37" shape="6514.81,7585.11 6514.00,7582.29 6514.01,7579.29 6514.84,7576.13 6516.50,7572.78"/>
        <lane id=":1147306406_2_1" index="1" disallow="tram rail_urban rail rail_electric rail_fast ship" speed="9.84" length="12.37" shape="6518.60,7585.76 6517.65,7582.84 6517.44,7579.98 6517.97,7577.18 6519.24,7574.44"/>
    </edge>
    <edge id=":1147306421_0" function="internal">
        <lane id=":1147306421_0_0" index="0" disallow="tram rail_urban rail rail_electric rail_fast ship" speed="8.30" length="5.80" shape="6543.80,7574.12 6544.74,7575.49 6545.67,7576.21 6546.83,7576.64 6548.49,7577.10"/>
    </edge>
    <edge id=":1147306421_1" function="internal">
        <lane id=":1147306421_1_0" index="0" disallow="tram rail_urban rail rail_electric rail_fast ship" speed="13.89" length="5.72" shape="6543.80,7574.12 6544.59,7575.74 6544.88,7576.95 6544.99,7578.23 6545.26,7580.05"/>
        <lane id=":1147306421_1_1" index="1" disallow="tram rail_urban rail rail_electric rail_fast ship" speed="8.25" length="5.72" shape="6541.03,7575.72 6541.81,7577.07 6542.23,7578.09 6542.33,7579.16 6542.12,7580.68"/>
    </edge>
    <edge id=":1147306656_0" function="internal">
        <lane id=":1147306656_0_0" index="0" allow="private emergency authority army vip passenger hov taxi bus coach delivery truck trailer motorcycle evehicle custom1 custom2" speed="9.52" length="5.96" shape="6537.31,7563.06 6537.51,7564.83 6537.71,7566.07 6538.21,7567.17 6539.33,7568.47"/>
    </edge>
    <edge id=":1147306656_1" function="internal">
        <lane id=":1147306656_1_0" index="0" disallow="tram rail_urban rail rail_electric rail_fast ship" speed="10.29" length="5.89" shape="6533.73,7565.84 6535.58,7566.18 6536.85,7566.54 6537.96,7567.21 6539.33,7568.47"/>
        <lane id=":1147306656_1_1" index="1" disallow="tram rail_urban rail rail_electric rail_fast ship" speed="9.59" length="5.89" shape="6532.16,7568.81 6533.76,7569.05 6534.89,7569.25 6535.88,7569.72 6537.07,7570.74"/>
    </edge>
    <edge id=":1147306703_0" function="internal">
        <lane id=":1147306703_0_0" index="0" disallow="tram rail_urban rail rail_electric rail_fast ship" speed="13.89" length="13.76" shape="6532.51,7595.80 6519.01,7598.51"/>
    </edge>
    <edge id=":1147306703_1" function="internal">
        <lane id=":1147306703_1_0" index="0" disallow="tram rail_urban rail rail_electric rail_fast ship" speed="10.40" length="13.52" shape="6532.51,7595.80 6528.55,7596.18 6525.05,7595.71 6522.00,7594.41 6519.41,7592.27"/>
        <lane id=":1147306703_1_1" index="1" disallow="tram rail_urban rail rail_electric rail_fast ship" speed="9.92" length="13.52" shape="6531.91,7592.66 6528.70,7592.87 6525.70,7592.26 6522.91,7590.81 6520.33,7588.54"/>
    </edge>
    <edge id=":1147307074_0" function="internal">
        <lane id=":1147307074_0_0" index="0" disallow="tram rail_urban rail rail_electric rail_fast ship" speed="9.59" length="8.00" shape="6713.48,7526.75 6714.94,7528.47 6716.36,7529.21 6718.08,7529.51 6720.45,7529.91"/>
        <lane id=":1147307074_0_1" index="1" disallow="tram rail_urban rail rail_electric rail_fast ship" speed="10.29" length="9.29" shape="6713.48,7526.75 6714.89,7529.16 6715.91,7530.92 6717.29,7532.16 6719.75,7533.03"/>
    </edge>
    <edge id=":1147307074_2" function="internal">
        <lane id=":1147307074_2_0" index="0" disallow="tram rail_urban rail rail_electric rail_fast ship" speed="10.44" length="9.36" shape="6713.48,7526.75 6715.01,7529.38 6715.99,7531.82 6716.42,7534.07 6716.29,7536.13"/>
        <lane id=":1147307074_2_1" index="1" disallow="tram rail_urban rail rail_electric rail_fast ship" speed="9.75" length="9.36" shape="6710.82,7528.52 6712.03,7530.66 6712.77,7532.74 6713.06,7534.77 6712.89,7536.74"/>
    </edge>
    <edge id=":269352956_0" function="internal">
        <lane id=":269352956_0_0" index="0" allow="private emergency authority army vip passenger hov taxi bus coach delivery truck trailer motorcycle evehicle custom1 custom2" speed="28.05" length="4.64" shape="6542.12,7407.19 6539.35,7403.59"/>
        <lane id=":269352956_0_1" index="1" allow="private emergency authority army vip passenger hov taxi bus coach delivery truck trailer motorcycle evehicle custom1 custom2" speed="28.05" length="4.64" shape="6544.67,7405.26 6541.78,7401.51"/>
    </edge>
    <edge id=":269354449_0" function="internal">
        <lane id=":269354449_0_0" index="0" allow="private emergency authority army vip passenger hov taxi bus coach delivery truck trailer motorcycle evehicle custom1 custom2" speed="20.84" length="3.08" shape="6585.89,7436.70 6586.99,7439.59"/>
    </edge>
    <edge id=":269354449_1" function="internal">
        <lane id=":269354449_1_0" index="0" allow="private emergency authority army vip passenger hov taxi bus coach delivery truck trailer motorcycle evehicle custom1 custom2" speed="25.00" length="3.07" shape="6582.88,7437.76 6583.87,7440.70"/>
        <lane id=":269354449_1_1" index="1" allow="private emergency authority army vip passenger hov taxi bus coach delivery truck trailer motorcycle evehicle custom1 custom2" speed="25.00" length="3.07" shape="6579.86,7438.82 6580.83,7441.70"/>
    </edge>
    <edge id=":269355962_0" function="internal">
        <lane id=":269355962_0_0" index="0" allow="private emergency authority army vip passenger hov taxi bus coach delivery truck trailer motorcycle evehicle custom1 custom2" speed="30.83" length="3.20" shape="6616.20,7562.75 6614.59,7559.98"/>
    </edge>
    <edge id=":269355962_1" function="internal">
        <lane id=":269355962_1_0" index="0" allow="private emergency authority army vip passenger hov taxi bus coach delivery truck trailer motorcycle evehicle custom1 custom2" speed="39.44" length="3.31" shape="6618.99,7561.19 6618.49,7560.29 6618.16,7559.67 6617.86,7559.03 6617.44,7558.09"/>
        <lane id=":269355962_1_1" index="1" allow="private emergency authority army vip passenger hov taxi bus coach delivery truck trailer motorcycle evehicle custom1 custom2" speed="39.44" length="3.31" shape="6621.78,7559.62 6621.32,7558.80 6621.02,7558.24 6620.75,7557.66 6620.37,7556.80"/>
    </edge>
    <edge id=":474423788-AddedOffRampNode_0" function="internal">
        <lane id=":474423788-AddedOffRampNode_0_0" index="0" allow="private emergency authority army vip passenger hov taxi bus coach delivery truck trailer motorcycle evehicle custom1 custom2" speed="16.67" length="5.91" shape="6539.22,7403.43 6531.24,7403.98"/>
        <lane id=":474423788-AddedOffRampNode_0_1" index="1" allow="private emergency authority army vip passenger hov taxi bus coach delivery truck trailer motorcycle evehicle custom1 custom2" speed="16.67" length="5.91" shape="6539.22,7403.43 6537.83,7402.58 6536.45,7402.66 6535.07,7402.74 6533.67,7401.89"/>
        <lane id=":474423788-AddedOffRampNode_0_2" index="2" allow="private emergency authority army vip passenger hov taxi bus coach delivery truck trailer motorcycle evehicle custom1 custom2" speed="16.67" length="5.91" shape="6539.22,7403.43 6536.10,7399.80"/>
        <lane id=":474423788-AddedOffRampNode_0_3" index="3" allow="private emergency authority army vip passenger hov taxi bus coach delivery truck trailer motorcycle evehicle custom1 custom2" speed="16.67" length="5.91" shape="6541.65,7401.35 6538.52,7397.72"/>
    </edge>
    <edge id=":674925795_0" function="internal">
        <lane id=":674925795_0_0" index="0" disallow="tram rail_urban rail rail_electric rail_fast ship" speed="21.50" length="9.09" shape="6557.07,7579.31 6559.56,7579.50 6561.28,7579.49 6562.98,7579.19 6565.39,7578.53"/>
        <lane id=":674925795_0_1" index="1" disallow="tram rail_urban rail rail_electric rail_fast ship" speed="23.07" length="9.09" shape="6557.07,7579.31 6559.86,7580.03 6561.73,7581.10 6563.57,7581.85 6566.27,7581.61"/>
    </edge>
    <edge id=":674925849_0" function="internal">
        <lane id=":674925849_0_0" index="0" allow="private emergency authority army vip passenger hov taxi bus coach delivery truck trailer motorcycle evehicle custom1 custom2" speed="7.38" length="7.06" shape="6698.92,7515.93 6699.71,7517.59 6700.82,7518.88 6702.24,7519.81 6703.98,7520.37"/>
    </edge>
    <edge id=":674925849_1" function="internal">
        <lane id=":674925849_1_0" index="0" disallow="tram rail_urban rail rail_electric rail_fast ship" speed="18.39" length="6.81" shape="6696.22,7520.62 6698.50,7520.16 6700.10,7519.93 6701.70,7519.98 6703.98,7520.37"/>
        <lane id=":674925849_1_1" index="1" disallow="tram rail_urban rail rail_electric rail_fast ship" speed="15.80" length="6.81" shape="6697.64,7523.60 6699.32,7523.28 6700.49,7523.14 6701.67,7523.21 6703.34,7523.51"/>
    </edge>
    <edge id=":674925851_0" function="internal">
        <lane id=":674925851_0_0" index="0" allow="private emergency authority army vip passenger hov taxi bus coach delivery truck trailer motorcycle evehicle custom1 custom2" speed="25.00" length="21.46" shape="6685.47,7533.34 6686.88,7526.59 6687.97,7520.92 6688.51,7516.17 6688.29,7512.17"/>
    </edge>
    <edge id=":674925851_1" function="internal">
        <lane id=":674925851_1_0" index="0" disallow="tram rail_urban rail rail_electric rail_fast ship" speed="10.21" length="15.56" shape="6685.47,7533.34 6686.90,7528.41 6688.97,7524.68 6691.65,7522.17 6694.96,7520.86"/>
        <lane id=":674925851_1_1" index="1" disallow="tram rail_urban rail rail_electric rail_fast ship" speed="9.55" length="15.56" shape="6688.60,7533.98 6689.84,7529.97 6691.73,7526.90 6694.26,7524.80 6697.44,7523.64"/>
    </edge>
    <edge id=":685275830_0" function="internal">
        <lane id=":685275830_0_0" index="0" disallow="tram rail_urban rail rail_electric rail_fast ship" speed="20.84" length="0.10" shape="6426.09,7604.40 6426.09,7604.40"/>
    </edge>
    <edge id=":95841103#1-AddedOnRampNode_0" function="internal">
        <lane id=":95841103#1-AddedOnRampNode_0_0" index="0" allow="private emergency authority army vip passenger hov taxi bus coach delivery truck trailer motorcycle evehicle custom1 custom2" speed="39.44" length="0.32" shape="6666.66,7639.64 6666.47,7639.38"/>
        <lane id=":95841103#1-AddedOnRampNode_0_1" index="1" allow="private emergency authority army vip passenger hov taxi bus coach delivery truck trailer motorcycle evehicle custom1 custom2" speed="39.44" length="0.32" shape="6669.22,7637.72 6669.03,7637.46"/>
        <lane id=":95841103#1-AddedOnRampNode_0_2" index="2" allow="private emergency authority army vip passenger hov taxi bus coach delivery truck trailer motorcycle evehicle custom1 custom2" speed="39.44" length="0.32" shape="6671.78,7635.80 6671.60,7635.55"/>
    </edge>

    <edge id="1030031023" from="1147306406" to="1147306180" name="Avenida dos Descobrimentos" priority="11" type="highway.secondary" spreadType="center" shape="6516.84,7575.32 6518.87,7571.96 6521.76,7569.30">
        <lane id="1030031023_0" index="0" disallow="tram rail_urban rail rail_electric rail_fast ship" speed="13.89" length="4.67" shape="6516.50,7572.78 6517.62,7570.94 6519.80,7568.93">
            <param key="origId" value="1030031023"/>
        </lane>
        <lane id="1030031023_1" index="1" disallow="tram rail_urban rail rail_electric rail_fast ship" speed="13.89" length="4.67" shape="6519.24,7574.44 6520.12,7572.98 6521.97,7571.28">
            <param key="origId" value="1030031023"/>
        </lane>
    </edge>
    <edge id="1030031024" from="1147306180" to="1147306656" name="Avenida dos Descobrimentos" priority="11" type="highway.secondary" spreadType="center" shape="6521.76,7569.30 6525.42,7567.37 6530.09,7566.80 6534.41,7567.59 6538.28,7569.68">
        <lane id="1030031024_0" index="0" disallow="tram rail_urban rail rail_electric rail_fast ship" speed="13.89" length="2.10" shape="6530.08,7565.19 6533.73,7565.84">
            <param key="origId" value="1030031024"/>
        </lane>
        <lane id="1030031024_1" index="1" disallow="tram rail_urban rail rail_electric rail_fast ship" speed="13.89" length="2.10" shape="6531.68,7568.72 6532.16,7568.81">
            <param key="origId" value="1030031024"/>
        </lane>
    </edge>
    <edge id="1030031025" from="1147306656" to="1147306421" name="Avenida dos Descobrimentos" priority="11" type="highway.secondary" spreadType="center" shape="6538.28,7569.68 6540.86,7572.25 6542.68,7575.38">
        <lane id="1030031025_0" index="0" disallow="tram rail_urban rail rail_electric rail_fast ship" speed="13.89" length="6.84" shape="6539.33,7568.47 6542.14,7571.26 6543.80,7574.12">
            <param key="origId" value="1030031025"/>
        </lane>
        <lane id="1030031025_1" index="1" disallow="tram rail_urban rail rail_electric rail_fast ship" speed="13.89" length="6.84" shape="6537.07,7570.74 6539.58,7573.24 6541.03,7575.72">
            <param key="origId" value="1030031025"/>
        </lane>
    </edge>
    <edge id="1030031026" from="674925851" to="674925849" name="Rotunda do ISPGAYA" priority="11" type="highway.secondary" spreadType="center" shape="6687.79,7529.94 6690.93,7524.98 6695.43,7522.40 6700.80,7521.36">
        <lane id="1030031026_0" index="0" disallow="tram rail_urban rail rail_electric rail_fast ship" speed="27.78" length="0.74" shape="6694.96,7520.86 6696.22,7520.62">
            <param key="origId" value="1030031026"/>
        </lane>
        <lane id="1030031026_1" index="1" disallow="tram rail_urban rail rail_electric rail_fast ship" speed="27.78" length="0.74" shape="6697.44,7523.64 6697.64,7523.60">
            <param key="origId" value="1030031026"/>
        </lane>
    </edge>
    <edge id="1030031027" from="1147305620" to="674925851" name="Rotunda do ISPGAYA" priority="11" type="highway.secondary" spreadType="center">
        <lane id="1030031027_0" index="0" disallow="tram rail_urban rail rail_electric rail_fast ship" speed="27.78" length="0.20" shape="6685.43,7533.54 6685.47,7533.34">
            <param key="origId" value="1030031027"/>
        </lane>
        <lane id="1030031027_1" index="1" disallow="tram rail_urban rail rail_electric rail_fast ship" speed="27.78" length="0.20" shape="6688.56,7534.18 6688.60,7533.98">
            <param key="origId" value="1030031027"/>
        </lane>
    </edge>
    <edge id="1030031028" from="674925849" to="1147307074" name="Rotunda do ISPGAYA" priority="11" type="highway.secondary" spreadType="center" shape="6700.80,7521.36 6706.18,7522.45 6710.73,7525.50 6713.75,7530.05">
        <lane id="1030031028_0" index="0" disallow="tram rail_urban rail rail_electric rail_fast ship" speed="27.78" length="10.61" shape="6703.98,7520.37 6706.81,7520.94 6711.89,7524.35 6713.48,7526.75">
            <param key="origId" value="1030031028"/>
        </lane>
        <lane id="1030031028_1" index="1" disallow="tram rail_urban rail rail_electric rail_fast ship" speed="27.78" length="10.61" shape="6703.34,7523.51 6705.55,7523.96 6709.57,7526.65 6710.82,7528.52">
            <param key="origId" value="1030031028"/>
        </lane>
    </edge>
    <edge id="1082071543" from="1147305122" to="1147306406" name="Avenida dos Descobrimentos" priority="11" type="highway.secondary" spreadType="center" shape="6353.59,7597.92 6425.67,7593.94 6476.48,7592.86 6487.17,7591.74 6496.52,7588.30 6511.96,7580.18 6516.84,7575.32">
        <lane id="1082071543_0" index="0" disallow="tram rail_urban rail rail_electric rail_fast ship" speed="13.89" length="158.06" shape="6353.50,7596.32 6425.61,7592.34 6476.38,7591.26 6486.80,7590.17 6495.87,7586.83 6508.04,7580.43">
            <param key="origId" value="1082071543 258633477"/>
        </lane>
        <lane id="1082071543_1" index="1" disallow="tram rail_urban rail rail_electric rail_fast ship" speed="13.89" length="158.06" shape="6353.68,7599.52 6425.73,7595.54 6476.58,7594.46 6487.54,7593.31 6497.17,7589.77 6510.38,7582.82">
            <param key="origId" value="1082071543 258633477"/>
        </lane>
    </edge>
    <edge id="196767730" from="2070590395" to="1147306087" name="Avenida dos Descobrimentos" priority="11" type="highway.secondary" spreadType="center" shape="6803.93,7449.13 6790.63,7488.29 6780.68,7511.08 6778.67,7515.70 6771.35,7527.67 6762.56,7535.66 6751.08,7540.27 6744.56,7542.06 6738.33,7543.78 6731.47,7544.19 6710.64,7545.29">
        <lane id="196767730_0" index="0" disallow="tram rail_urban rail rail_electric rail_fast ship" speed="27.78" length="142.70" shape="6805.45,7449.64 6792.12,7488.87 6782.15,7511.72 6780.09,7516.44 6772.60,7528.70 6763.42,7537.04 6751.59,7541.79 6744.98,7543.60 6738.59,7545.37 6731.56,7545.79 6718.51,7546.48">
            <param key="origId" value="196767730"/>
        </lane>
        <lane id="196767730_1" index="1" disallow="tram rail_urban rail rail_electric rail_fast ship" speed="27.78" length="142.70" shape="6802.41,7448.62 6789.14,7487.71 6779.21,7510.44 6777.25,7514.96 6770.10,7526.64 6761.70,7534.28 6750.57,7538.75 6744.14,7540.52 6738.07,7542.19 6731.38,7542.59 6718.34,7543.28">
            <param key="origId" value="196767730"/>
        </lane>
    </edge>