<?xml version="1.0" encoding="UTF-8"?>

<!-- generated on 2023-04-11 15:33:51 by Eclipse SUMO netedit Version 1.15.0
<configuration xmlns:xsi="http://www.w3.org/2001/XMLSchema-instance" xsi:noNamespaceSchemaLocation="http://sumo.dlr.de/xsd/netconvertConfiguration.xsd">

    <input>
        <sumo-net-file value="C:\Users\Paulinho\Desktop\Master-Thesis\nodes\no_continente.net.xml"/>
    </input>

    <output>
        <output-file value="C:\Users\Paulinho\Desktop\Master-Thesis\nodes\no_continente.net.xml"/>
        <output.street-names value="true"/>
    </output>

    <processing>
        <geometry.min-radius.fix.railways value="false"/>
        <geometry.max-grade.fix value="false"/>
        <offset.disable-normalization value="true"/>
        <lefthand value="0"/>
    </processing>

    <junctions>
        <no-turnarounds value="true"/>
        <junctions.corner-detail value="5"/>
        <junctions.limit-turn-speed value="5.50"/>
        <rectangular-lane-cut value="0"/>
    </junctions>

    <pedestrian>
        <walkingareas value="0"/>
    </pedestrian>

    <netedit>
        <additional-files value="C:\Users\Paulinho\Desktop\Master-Thesis\nodes\no_continente_poi.xml"/>
    </netedit>

</configuration>
-->

<net version="1.9" junctionCornerDetail="5" limitTurnSpeed="5.50" xmlns:xsi="http://www.w3.org/2001/XMLSchema-instance" xsi:noNamespaceSchemaLocation="http://sumo.dlr.de/xsd/net_file.xsd">

    <location netOffset="-524914.43,-4544541.91" convBoundary="6464.24,7264.01,6741.51,7711.87" origBoundary="-8.702913,41.051318,-8.236192,41.279522" projParameter="+proj=utm +zone=29 +ellps=WGS84 +datum=WGS84 +units=m +no_defs"/>

    <type id="highway.bridleway" priority="1" numLanes="1" speed="2.78" allow="pedestrian" oneway="1" width="2.00"/>
    <type id="highway.bus_guideway" priority="1" numLanes="1" speed="27.78" allow="bus" oneway="1"/>
    <type id="highway.cycleway" priority="1" numLanes="1" speed="5.56" allow="bicycle" oneway="0" width="1.00"/>
    <type id="highway.footway" priority="1" numLanes="1" speed="2.78" allow="pedestrian" oneway="1" width="2.00"/>
    <type id="highway.ford" priority="1" numLanes="1" speed="2.78" allow="army" oneway="0"/>
    <type id="highway.living_street" priority="2" numLanes="1" speed="2.78" disallow="tram rail_urban rail rail_electric rail_fast ship" oneway="0"/>
    <type id="highway.motorway" priority="14" numLanes="2" speed="39.44" allow="private emergency authority army vip passenger hov taxi bus coach delivery truck trailer motorcycle evehicle custom1 custom2" oneway="1"/>
    <type id="highway.motorway_link" priority="9" numLanes="1" speed="22.22" allow="private emergency authority army vip passenger hov taxi bus coach delivery truck trailer motorcycle evehicle custom1 custom2" oneway="1"/>
    <type id="highway.path" priority="1" numLanes="1" speed="5.56" allow="pedestrian bicycle" oneway="0" width="2.00"/>
    <type id="highway.pedestrian" priority="1" numLanes="1" speed="2.78" allow="pedestrian" oneway="1" width="2.00"/>
    <type id="highway.primary" priority="12" numLanes="2" speed="27.78" disallow="tram rail_urban rail rail_electric rail_fast ship" oneway="0"/>
    <type id="highway.primary_link" priority="7" numLanes="1" speed="22.22" disallow="tram rail_urban rail rail_electric rail_fast ship" oneway="0"/>
    <type id="highway.raceway" priority="15" numLanes="2" speed="83.33" allow="vip" oneway="0"/>
    <type id="highway.residential" priority="3" numLanes="1" speed="13.89" disallow="tram rail_urban rail rail_electric rail_fast ship" oneway="0"/>
    <type id="highway.secondary" priority="11" numLanes="1" speed="27.78" disallow="tram rail_urban rail rail_electric rail_fast ship" oneway="0"/>
    <type id="highway.secondary_link" priority="6" numLanes="1" speed="22.22" disallow="tram rail_urban rail rail_electric rail_fast ship" oneway="0"/>
    <type id="highway.service" priority="1" numLanes="1" speed="5.56" allow="pedestrian delivery bicycle" oneway="0"/>
    <type id="highway.stairs" priority="1" numLanes="1" speed="1.39" allow="pedestrian" oneway="1" width="2.00"/>
    <type id="highway.step" priority="1" numLanes="1" speed="1.39" allow="pedestrian" oneway="1" width="2.00"/>
    <type id="highway.steps" priority="1" numLanes="1" speed="1.39" allow="pedestrian" oneway="1" width="2.00"/>
    <type id="highway.tertiary" priority="10" numLanes="1" speed="22.22" disallow="tram rail_urban rail rail_electric rail_fast ship" oneway="0"/>
    <type id="highway.tertiary_link" priority="5" numLanes="1" speed="22.22" disallow="tram rail_urban rail rail_electric rail_fast ship" oneway="0"/>
    <type id="highway.track" priority="1" numLanes="1" speed="5.56" allow="pedestrian motorcycle moped bicycle" oneway="0"/>
    <type id="highway.trunk" priority="13" numLanes="2" speed="27.78" disallow="pedestrian bicycle tram rail_urban rail rail_electric rail_fast ship" oneway="0"/>
    <type id="highway.trunk_link" priority="8" numLanes="1" speed="22.22" disallow="pedestrian bicycle tram rail_urban rail rail_electric rail_fast ship" oneway="0"/>
    <type id="highway.unclassified" priority="4" numLanes="1" speed="13.89" disallow="tram rail_urban rail rail_electric rail_fast ship" oneway="0"/>
    <type id="highway.unsurfaced" priority="1" numLanes="1" speed="8.33" disallow="tram rail_urban rail rail_electric rail_fast ship" oneway="0"/>
    <type id="railway.highspeed" priority="21" numLanes="1" speed="69.44" allow="rail_fast" oneway="1"/>
    <type id="railway.light_rail" priority="19" numLanes="1" speed="27.78" allow="rail_urban" oneway="1"/>
    <type id="railway.preserved" priority="16" numLanes="1" speed="27.78" allow="rail" oneway="1"/>
    <type id="railway.rail" priority="20" numLanes="1" speed="44.44" allow="rail" oneway="1"/>
    <type id="railway.subway" priority="18" numLanes="1" speed="27.78" allow="rail_urban" oneway="1"/>
    <type id="railway.tram" priority="17" numLanes="1" speed="13.89" allow="tram" oneway="1"/>

    <edge id=":1147305344_0" function="internal">
        <lane id=":1147305344_0_0" index="0" disallow="tram rail_urban rail rail_electric rail_fast ship" speed="20.84" length="17.40" shape="6547.61,7591.76 6544.10,7592.53 6540.55,7593.62 6536.32,7594.87 6530.78,7596.13"/>
    </edge>
    <edge id=":1147305344_1" function="internal">
        <lane id=":1147305344_1_0" index="0" disallow="tram rail_urban rail rail_electric rail_fast ship" speed="10.57" length="17.25" shape="6544.37,7585.93 6542.93,7589.54 6540.18,7592.44 6536.14,7594.63 6530.78,7596.13"/>
        <lane id=":1147305344_1_1" index="1" disallow="tram rail_urban rail rail_electric rail_fast ship" speed="10.08" length="17.25" shape="6541.72,7582.76 6540.40,7586.52 6538.03,7589.48 6534.63,7591.64 6530.18,7592.99"/>
    </edge>
    <edge id=":1147305620_0" function="internal">
        <lane id=":1147305620_0_0" index="0" disallow="tram rail_urban rail rail_electric rail_fast ship" speed="10.61" length="9.69" shape="6687.62,7543.37 6686.28,7540.94 6685.47,7538.49 6685.18,7536.02 6685.43,7533.54"/>
        <lane id=":1147305620_0_1" index="1" disallow="tram rail_urban rail rail_electric rail_fast ship" speed="9.95" length="9.69" shape="6691.00,7542.66 6689.65,7540.33 6688.80,7538.14 6688.43,7536.09 6688.56,7534.18"/>
    </edge>
    <edge id=":1147305620_2" function="internal">
        <lane id=":1147305620_2_0" index="0" disallow="tram rail_urban rail rail_electric rail_fast ship" speed="15.52" length="9.64" shape="6680.41,7540.67 6682.21,7538.71 6683.61,7537.42 6684.66,7535.97 6685.43,7533.54"/>
        <lane id=":1147305620_2_1" index="1" disallow="tram rail_urban rail rail_electric rail_fast ship" speed="16.75" length="9.64" shape="6682.92,7542.65 6684.99,7540.35 6686.55,7538.79 6687.70,7537.04 6688.56,7534.18"/>
    </edge>
    <edge id=":1147305736_0" function="internal">
        <lane id=":1147305736_0_0" index="0" allow="private emergency authority army vip passenger hov taxi bus coach delivery truck trailer motorcycle evehicle custom1 custom2" speed="23.61" length="3.23" shape="6634.89,7543.89 6635.27,7544.77 6635.54,7545.37 6635.86,7545.94 6636.35,7546.77"/>
    </edge>
    <edge id=":1147305736_1" function="internal">
        <lane id=":1147305736_1_0" index="0" allow="private emergency authority army vip passenger hov taxi bus coach delivery truck trailer motorcycle evehicle custom1 custom2" speed="25.00" length="3.52" shape="6631.93,7545.43 6633.61,7548.42"/>
        <lane id=":1147305736_1_1" index="1" allow="private emergency authority army vip passenger hov taxi bus coach delivery truck trailer motorcycle evehicle custom1 custom2" speed="25.00" length="3.52" shape="6629.10,7546.93 6630.88,7550.08"/>
    </edge>
    <edge id=":1147305760_0" function="internal">
        <lane id=":1147305760_0_0" index="0" disallow="tram rail_urban rail rail_electric rail_fast ship" speed="27.78" length="16.94" shape="6705.53,7550.03 6700.09,7550.97 6695.86,7551.68 6692.37,7552.56 6689.17,7554.04"/>
    </edge>
    <edge id=":1147305760_1" function="internal">
        <lane id=":1147305760_1_0" index="0" disallow="tram rail_urban rail rail_electric rail_fast ship" speed="13.28" length="15.63" shape="6705.53,7550.03 6700.83,7550.76 6697.46,7550.61 6694.32,7549.36 6690.29,7546.81"/>
        <lane id=":1147305760_1_1" index="1" disallow="tram rail_urban rail rail_electric rail_fast ship" speed="9.73" length="15.63" shape="6704.92,7546.89 6700.38,7547.37 6696.60,7546.90 6693.57,7545.49 6691.31,7543.14"/>
    </edge>
    <edge id=":1147305927_0" function="internal">
        <lane id=":1147305927_0_0" index="0" allow="private emergency authority army vip passenger hov taxi bus coach delivery truck trailer motorcycle evehicle custom1 custom2" speed="26.66" length="3.11" shape="6563.03,7445.96 6561.81,7443.10"/>
    </edge>
    <edge id=":1147305927_1" function="internal">
        <lane id=":1147305927_1_0" index="0" allow="private emergency authority army vip passenger hov taxi bus coach delivery truck trailer motorcycle evehicle custom1 custom2" speed="39.44" length="3.09" shape="6566.02,7444.54 6564.71,7441.74"/>
        <lane id=":1147305927_1_1" index="1" allow="private emergency authority army vip passenger hov taxi bus coach delivery truck trailer motorcycle evehicle custom1 custom2" speed="39.44" length="3.09" shape="6568.91,7443.18 6567.61,7440.39"/>
    </edge>
    <edge id=":1147306087_0" function="internal">
        <lane id=":1147306087_0_0" index="0" disallow="tram rail_urban rail rail_electric rail_fast ship" speed="9.13" length="1.27" shape="6712.32,7545.66 6712.00,7546.12 6711.75,7546.42 6711.45,7546.66 6710.99,7546.98"/>
        <lane id=":1147306087_0_1" index="1" disallow="tram rail_urban rail rail_electric rail_fast ship" speed="27.78" length="1.27" shape="6709.67,7543.86 6709.57,7544.02 6709.48,7544.12 6709.38,7544.20 6709.23,7544.31"/>
    </edge>
    <edge id=":1147306180_0" function="internal">
        <lane id=":1147306180_0_0" index="0" allow="private emergency authority army vip passenger hov taxi bus coach delivery truck trailer motorcycle evehicle custom1 custom2" speed="13.89" length="10.82" shape="6519.80,7568.93 6522.07,7566.64 6523.38,7564.78 6524.28,7562.72 6525.34,7559.84"/>
    </edge>
    <edge id=":1147306180_1" function="internal">
        <lane id=":1147306180_1_0" index="0" disallow="tram rail_urban rail rail_electric rail_fast ship" speed="9.95" length="10.88" shape="6519.80,7568.93 6522.35,7566.94 6524.91,7565.66 6527.49,7565.07 6530.08,7565.19"/>
        <lane id=":1147306180_1_1" index="1" disallow="tram rail_urban rail rail_electric rail_fast ship" speed="9.53" length="10.88" shape="6521.97,7571.28 6524.05,7569.76 6526.36,7568.83 6528.91,7568.48 6531.68,7568.72"/>
    </edge>
    <edge id=":1147306406_0" function="internal">
        <lane id=":1147306406_0_0" index="0" disallow="tram rail_urban rail rail_electric rail_fast ship" speed="13.50" length="0.99" shape="6515.17,7575.43 6515.27,7575.00 6515.37,7574.72 6515.50,7574.45 6515.73,7574.07"/>
        <lane id=":1147306406_0_1" index="1" disallow="tram rail_urban rail rail_electric rail_fast ship" speed="13.89" length="0.99" shape="6518.28,7576.18 6518.32,7576.03 6518.35,7575.94 6518.39,7575.85 6518.47,7575.72"/>
    </edge>
    <edge id=":1147306421_0" function="internal">
        <lane id=":1147306421_0_0" index="0" disallow="tram rail_urban rail rail_electric rail_fast ship" speed="8.30" length="5.80" shape="6543.80,7574.12 6544.74,7575.49 6545.67,7576.21 6546.83,7576.64 6548.49,7577.10"/>
    </edge>
    <edge id=":1147306421_1" function="internal">
        <lane id=":1147306421_1_0" index="0" disallow="tram rail_urban rail rail_electric rail_fast ship" speed="13.89" length="5.72" shape="6543.80,7574.12 6544.59,7575.74 6544.88,7576.95 6544.99,7578.23 6545.26,7580.05"/>
        <lane id=":1147306421_1_1" index="1" disallow="tram rail_urban rail rail_electric rail_fast ship" speed="8.25" length="5.72" shape="6541.03,7575.72 6541.81,7577.07 6542.23,7578.09 6542.33,7579.16 6542.12,7580.68"/>
    </edge>
    <edge id=":1147306656_0" function="internal">
        <lane id=":1147306656_0_0" index="0" allow="private emergency authority army vip passenger hov taxi bus coach delivery truck trailer motorcycle evehicle custom1 custom2" speed="9.52" length="5.96" shape="6537.31,7563.06 6537.51,7564.83 6537.71,7566.07 6538.21,7567.17 6539.33,7568.47"/>
    </edge>
    <edge id=":1147306656_1" function="internal">
        <lane id=":1147306656_1_0" index="0" disallow="tram rail_urban rail rail_electric rail_fast ship" speed="10.29" length="5.89" shape="6533.73,7565.84 6535.58,7566.18 6536.85,7566.54 6537.96,7567.21 6539.33,7568.47"/>
        <lane id=":1147306656_1_1" index="1" disallow="tram rail_urban rail rail_electric rail_fast ship" speed="9.59" length="5.89" shape="6532.16,7568.81 6533.76,7569.05 6534.89,7569.25 6535.88,7569.72 6537.07,7570.74"/>
    </edge>
    <edge id=":1147306703_0" function="internal">
        <lane id=":1147306703_0_0" index="0" disallow="tram rail_urban rail rail_electric rail_fast ship" speed="10.17" length="1.15" shape="6530.50,7596.18 6530.00,7596.27 6529.64,7596.31 6529.29,7596.28 6528.79,7596.20"/>
        <lane id=":1147306703_0_1" index="1" disallow="tram rail_urban rail rail_electric rail_fast ship" speed="13.89" length="1.15" shape="6529.90,7593.04 6529.73,7593.07 6529.61,7593.08 6529.50,7593.07 6529.33,7593.05"/>
    </edge>
    <edge id=":1147307074_0" function="internal">
        <lane id=":1147307074_0_0" index="0" disallow="tram rail_urban rail rail_electric rail_fast ship" speed="9.16" length="1.26" shape="6714.73,7528.63 6715.04,7529.11 6715.21,7529.45 6715.33,7529.82 6715.44,7530.37"/>
        <lane id=":1147307074_0_1" index="1" disallow="tram rail_urban rail rail_electric rail_fast ship" speed="27.78" length="1.26" shape="6712.06,7530.40 6712.17,7530.56 6712.23,7530.68 6712.26,7530.80 6712.30,7530.98"/>
    </edge>
    <edge id=":269352956_0" function="internal">
        <lane id=":269352956_0_0" index="0" allow="private emergency authority army vip passenger hov taxi bus coach delivery truck trailer motorcycle evehicle custom1 custom2" speed="28.05" length="4.64" shape="6542.12,7407.19 6539.35,7403.59"/>
        <lane id=":269352956_0_1" index="1" allow="private emergency authority army vip passenger hov taxi bus coach delivery truck trailer motorcycle evehicle custom1 custom2" speed="28.05" length="4.64" shape="6544.67,7405.26 6541.78,7401.51"/>
    </edge>
    <edge id=":269354449_0" function="internal">
        <lane id=":269354449_0_0" index="0" allow="private emergency authority army vip passenger hov taxi bus coach delivery truck trailer motorcycle evehicle custom1 custom2" speed="20.84" length="3.08" shape="6585.89,7436.70 6586.99,7439.59"/>
    </edge>
    <edge id=":269354449_1" function="internal">
        <lane id=":269354449_1_0" index="0" allow="private emergency authority army vip passenger hov taxi bus coach delivery truck trailer motorcycle evehicle custom1 custom2" speed="25.00" length="3.07" shape="6582.88,7437.76 6583.87,7440.70"/>
        <lane id=":269354449_1_1" index="1" allow="private emergency authority army vip passenger hov taxi bus coach delivery truck trailer motorcycle evehicle custom1 custom2" speed="25.00" length="3.07" shape="6579.86,7438.82 6580.83,7441.70"/>
    </edge>
    <edge id=":269355962_0" function="internal">
        <lane id=":269355962_0_0" index="0" allow="private emergency authority army vip passenger hov taxi bus coach delivery truck trailer motorcycle evehicle custom1 custom2" speed="30.83" length="3.20" shape="6616.20,7562.75 6614.59,7559.98"/>
    </edge>
    <edge id=":269355962_1" function="internal">
        <lane id=":269355962_1_0" index="0" allow="private emergency authority army vip passenger hov taxi bus coach delivery truck trailer motorcycle evehicle custom1 custom2" speed="39.44" length="3.31" shape="6618.99,7561.19 6618.49,7560.29 6618.16,7559.67 6617.86,7559.03 6617.44,7558.09"/>
        <lane id=":269355962_1_1" index="1" allow="private emergency authority army vip passenger hov taxi bus coach delivery truck trailer motorcycle evehicle custom1 custom2" speed="39.44" length="3.31" shape="6621.78,7559.62 6621.32,7558.80 6621.02,7558.24 6620.75,7557.66 6620.37,7556.80"/>
    </edge>
    <edge id=":474423788-AddedOffRampNode_0" function="internal">
        <lane id=":474423788-AddedOffRampNode_0_0" index="0" allow="private emergency authority army vip passenger hov taxi bus coach delivery truck trailer motorcycle evehicle custom1 custom2" speed="16.67" length="5.91" shape="6539.22,7403.43 6531.24,7403.98"/>
        <lane id=":474423788-AddedOffRampNode_0_1" index="1" allow="private emergency authority army vip passenger hov taxi bus coach delivery truck trailer motorcycle evehicle custom1 custom2" speed="16.67" length="5.91" shape="6539.22,7403.43 6537.83,7402.58 6536.45,7402.66 6535.07,7402.74 6533.67,7401.89"/>
        <lane id=":474423788-AddedOffRampNode_0_2" index="2" allow="private emergency authority army vip passenger hov taxi bus coach delivery truck trailer motorcycle evehicle custom1 custom2" speed="16.67" length="5.91" shape="6539.22,7403.43 6536.10,7399.80"/>
        <lane id=":474423788-AddedOffRampNode_0_3" index="3" allow="private emergency authority army vip passenger hov taxi bus coach delivery truck trailer motorcycle evehicle custom1 custom2" speed="16.67" length="5.91" shape="6541.65,7401.35 6538.52,7397.72"/>
    </edge>
    <edge id=":674925795_0" function="internal">
        <lane id=":674925795_0_0" index="0" disallow="tram rail_urban rail rail_electric rail_fast ship" speed="21.50" length="9.09" shape="6557.07,7579.31 6559.56,7579.50 6561.28,7579.49 6562.98,7579.19 6565.39,7578.53"/>
        <lane id=":674925795_0_1" index="1" disallow="tram rail_urban rail rail_electric rail_fast ship" speed="23.07" length="9.09" shape="6557.07,7579.31 6559.86,7580.03 6561.73,7581.10 6563.57,7581.85 6566.27,7581.61"/>
    </edge>
    <edge id=":674925849_0" function="internal">
        <lane id=":674925849_0_0" index="0" allow="private emergency authority army vip passenger hov taxi bus coach delivery truck trailer motorcycle evehicle custom1 custom2" speed="7.38" length="7.06" shape="6698.92,7515.93 6699.71,7517.59 6700.82,7518.88 6702.24,7519.81 6703.98,7520.37"/>
    </edge>
    <edge id=":674925849_1" function="internal">
        <lane id=":674925849_1_0" index="0" disallow="tram rail_urban rail rail_electric rail_fast ship" speed="18.39" length="6.81" shape="6696.22,7520.62 6698.50,7520.16 6700.10,7519.93 6701.70,7519.98 6703.98,7520.37"/>
        <lane id=":674925849_1_1" index="1" disallow="tram rail_urban rail rail_electric rail_fast ship" speed="15.80" length="6.81" shape="6697.64,7523.60 6699.32,7523.28 6700.49,7523.14 6701.67,7523.21 6703.34,7523.51"/>
    </edge>
    <edge id=":674925851_0" function="internal">
        <lane id=":674925851_0_0" index="0" allow="private emergency authority army vip passenger hov taxi bus coach delivery truck trailer motorcycle evehicle custom1 custom2" speed="25.00" length="21.46" shape="6685.47,7533.34 6686.88,7526.59 6687.97,7520.92 6688.51,7516.17 6688.29,7512.17"/>
    </edge>
    <edge id=":674925851_1" function="internal">
        <lane id=":674925851_1_0" index="0" disallow="tram rail_urban rail rail_electric rail_fast ship" speed="10.21" length="15.56" shape="6685.47,7533.34 6686.90,7528.41 6688.97,7524.68 6691.65,7522.17 6694.96,7520.86"/>
        <lane id=":674925851_1_1" index="1" disallow="tram rail_urban rail rail_electric rail_fast ship" speed="9.55" length="15.56" shape="6688.60,7533.98 6689.84,7529.97 6691.73,7526.90 6694.26,7524.80 6697.44,7523.64"/>
    </edge>
    <edge id=":95841103#1-AddedOnRampNode_0" function="internal">
        <lane id=":95841103#1-AddedOnRampNode_0_0" index="0" allow="private emergency authority army vip passenger hov taxi bus coach delivery truck trailer motorcycle evehicle custom1 custom2" speed="39.44" length="0.32" shape="6666.66,7639.64 6666.47,7639.38"/>
        <lane id=":95841103#1-AddedOnRampNode_0_1" index="1" allow="private emergency authority army vip passenger hov taxi bus coach delivery truck trailer motorcycle evehicle custom1 custom2" speed="39.44" length="0.32" shape="6669.22,7637.72 6669.03,7637.46"/>
        <lane id=":95841103#1-AddedOnRampNode_0_2" index="2" allow="private emergency authority army vip passenger hov taxi bus coach delivery truck trailer motorcycle evehicle custom1 custom2" speed="39.44" length="0.32" shape="6671.78,7635.80 6671.60,7635.55"/>
    </edge>

    <edge id="1030031023" from="1147306406" to="1147306180" name="Avenida dos Descobrimentos" priority="11" type="highway.secondary" spreadType="center" shape="6516.84,7575.32 6518.87,7571.96 6521.76,7569.30">
        <lane id="1030031023_0" index="0" disallow="tram rail_urban rail rail_electric rail_fast ship" speed="13.89" length="6.17" shape="6515.73,7574.07 6517.62,7570.94 6519.80,7568.93">
            <param key="origId" value="1030031023"/>
        </lane>
        <lane id="1030031023_1" index="1" disallow="tram rail_urban rail rail_electric rail_fast ship" speed="13.89" length="6.17" shape="6518.47,7575.72 6520.12,7572.98 6521.97,7571.28">
            <param key="origId" value="1030031023"/>
        </lane>
    </edge>
    <edge id="1030031024" from="1147306180" to="1147306656" name="Avenida dos Descobrimentos" priority="11" type="highway.secondary" spreadType="center" shape="6521.76,7569.30 6525.42,7567.37 6530.09,7566.80 6534.41,7567.59 6538.28,7569.68">
        <lane id="1030031024_0" index="0" disallow="tram rail_urban rail rail_electric rail_fast ship" speed="13.89" length="2.10" shape="6530.08,7565.19 6533.73,7565.84">
            <param key="origId" value="1030031024"/>
        </lane>
        <lane id="1030031024_1" index="1" disallow="tram rail_urban rail rail_electric rail_fast ship" speed="13.89" length="2.10" shape="6531.68,7568.72 6532.16,7568.81">
            <param key="origId" value="1030031024"/>
        </lane>
    </edge>
    <edge id="1030031025" from="1147306656" to="1147306421" name="Avenida dos Descobrimentos" priority="11" type="highway.secondary" spreadType="center" shape="6538.28,7569.68 6540.86,7572.25 6542.68,7575.38">
        <lane id="1030031025_0" index="0" disallow="tram rail_urban rail rail_electric rail_fast ship" speed="13.89" length="6.84" shape="6539.33,7568.47 6542.14,7571.26 6543.80,7574.12">
            <param key="origId" value="1030031025"/>
        </lane>
        <lane id="1030031025_1" index="1" disallow="tram rail_urban rail rail_electric rail_fast ship" speed="13.89" length="6.84" shape="6537.07,7570.74 6539.58,7573.24 6541.03,7575.72">
            <param key="origId" value="1030031025"/>
        </lane>
    </edge>
    <edge id="1030031026" from="674925851" to="674925849" name="Rotunda do ISPGAYA" priority="11" type="highway.secondary" spreadType="center" shape="6687.79,7529.94 6690.93,7524.98 6695.43,7522.40 6700.80,7521.36">
        <lane id="1030031026_0" index="0" disallow="tram rail_urban rail rail_electric rail_fast ship" speed="27.78" length="0.74" shape="6694.96,7520.86 6696.22,7520.62">
            <param key="origId" value="1030031026"/>
        </lane>
        <lane id="1030031026_1" index="1" disallow="tram rail_urban rail rail_electric rail_fast ship" speed="27.78" length="0.74" shape="6697.44,7523.64 6697.64,7523.60">
            <param key="origId" value="1030031026"/>
        </lane>
    </edge>
    <edge id="1030031027" from="1147305620" to="674925851" name="Rotunda do ISPGAYA" priority="11" type="highway.secondary" spreadType="center">
        <lane id="1030031027_0" index="0" disallow="tram rail_urban rail rail_electric rail_fast ship" speed="27.78" length="0.20" shape="6685.43,7533.54 6685.47,7533.34">
            <param key="origId" value="1030031027"/>
        </lane>
        <lane id="1030031027_1" index="1" disallow="tram rail_urban rail rail_electric rail_fast ship" speed="27.78" length="0.20" shape="6688.56,7534.18 6688.60,7533.98">
            <param key="origId" value="1030031027"/>
        </lane>
    </edge>
    <edge id="1030031028" from="674925849" to="1147307074" name="Rotunda do ISPGAYA" priority="11" type="highway.secondary" spreadType="center" shape="6700.80,7521.36 6706.18,7522.45 6710.73,7525.50 6713.75,7530.05">
        <lane id="1030031028_0" index="0" disallow="tram rail_urban rail rail_electric rail_fast ship" speed="27.78" length="12.87" shape="6703.98,7520.37 6706.81,7520.94 6711.89,7524.35 6714.73,7528.63">
            <param key="origId" value="1030031028"/>
        </lane>
        <lane id="1030031028_1" index="1" disallow="tram rail_urban rail rail_electric rail_fast ship" speed="27.78" length="12.87" shape="6703.34,7523.51 6705.55,7523.96 6709.57,7526.65 6712.06,7530.40">
            <param key="origId" value="1030031028"/>
        </lane>
    </edge>
    <edge id="474423785" from="1147305927" to="269352956" name="Via de Cintura Interna" priority="14" type="highway.motorway" spreadType="center" shape="6565.36,7443.14 6559.13,7429.81 6539.77,7404.07">
        <lane id="474423785_0" index="0" allow="private emergency authority army vip passenger hov taxi bus coach delivery truck trailer motorcycle evehicle custom1 custom2" speed="39.44" length="41.48" acceleration="1" shape="6561.81,7443.10 6556.37,7431.47 6539.56,7409.11">
            <param key="origId" value="474423785"/>
        </lane>
        <lane id="474423785_1" index="1" allow="private emergency authority army vip passenger hov taxi bus coach delivery truck trailer motorcycle evehicle custom1 custom2" speed="39.44" length="41.48" shape="6564.71,7441.74 6559.13,7429.81 6542.12,7407.19">
            <param key="origId" value="474423785"/>
        </lane>
        <lane id="474423785_2" index="2" allow="private emergency authority army vip passenger hov taxi bus coach delivery truck trailer motorcycle evehicle custom1 custom2" speed="39.44" length="41.48" shape="6567.61,7440.39 6561.89,7428.15 6544.67,7405.26">
            <param key="origId" value="474423785"/>
        </lane>
        <param key="ref" value="A 44"/>
    </edge>
    <edge id="474423788" from="269352956" to="474423788-AddedOffRampNode" name="Via de Cintura Interna" priority="14" type="highway.motorway" spreadType="center">
        <lane id="474423788_0" index="0" allow="private emergency authority army vip passenger hov taxi bus coach delivery truck trailer motorcycle evehicle custom1 custom2" speed="16.67" length="0.20" shape="6539.35,7403.59 6539.22,7403.43">
            <param key="origId" value="474423788"/>
        </lane>
        <lane id="474423788_1" index="1" allow="private emergency authority army vip passenger hov taxi bus coach delivery truck trailer motorcycle evehicle custom1 custom2" speed="16.67" length="0.20" shape="6541.78,7401.51 6541.65,7401.35">
            <param key="origId" value="474423788"/>
        </lane>
        <param key="ref" value="A 44"/>
    </edge>
    <edge id="474423788-AddedOffRampEdge" from="474423788-AddedOffRampNode" to="269352958" name="Via de Cintura Interna" priority="14" type="highway.motorway" spreadType="center" shape="6537.49,7403.88 6520.35,7383.94 6499.39,7364.99 6464.24,7337.16">
        <lane id="474423788-AddedOffRampEdge_0" index="0" allow="private emergency authority army vip passenger hov taxi bus coach delivery truck trailer motorcycle evehicle custom1 custom2" speed="16.67" length="95.39" shape="6531.24,7403.98 6516.91,7387.30 6496.29,7368.66 6461.26,7340.92">
            <param key="origId" value="474423788"/>
        </lane>
        <lane id="474423788-AddedOffRampEdge_1" index="1" allow="private emergency authority army vip passenger hov taxi bus coach delivery truck trailer motorcycle evehicle custom1 custom2" speed="16.67" length="95.39" shape="6533.67,7401.89 6519.20,7385.06 6498.36,7366.21 6463.24,7338.41">
            <param key="origId" value="474423788"/>
        </lane>
        <lane id="474423788-AddedOffRampEdge_2" index="2" allow="private emergency authority army vip passenger hov taxi bus coach delivery truck trailer motorcycle evehicle custom1 custom2" speed="16.67" length="95.39" shape="6536.10,7399.80 6521.50,7382.82 6500.42,7363.77 6465.23,7335.90">
            <param key="origId" value="474423788"/>
        </lane>
        <lane id="474423788-AddedOffRampEdge_3" index="3" allow="private emergency authority army vip passenger hov taxi bus coach delivery truck trailer motorcycle evehicle custom1 custom2" speed="16.67" length="95.39" shape="6538.52,7397.72 6523.79,7380.58 6502.49,7361.32 6467.22,7333.39">
            <param key="origId" value="474423788"/>
        </lane>
        <param key="ref" value="A 44"/>
    </edge>