<?xml version="1.0" encoding="UTF-8"?>

<!-- generated on 2023-09-27 19:40:05 by Eclipse SUMO netedit Version 1.15.0
<configuration xmlns:xsi="http://www.w3.org/2001/XMLSchema-instance" xsi:noNamespaceSchemaLocation="http://sumo.dlr.de/xsd/netconvertConfiguration.xsd">

    <input>
        <sumo-net-file value="C:\Users\Paulinho\Desktop\Master-Thesis\nodes\no_devesas.net.xml"/>
    </input>

    <output>
        <output-file value="C:\Users\Paulinho\Desktop\Master-Thesis\nodes\no_devesas.net.xml"/>
        <output.street-names value="true"/>
    </output>

    <processing>
        <geometry.min-radius.fix.railways value="false"/>
        <geometry.max-grade.fix value="false"/>
        <offset.disable-normalization value="true"/>
        <lefthand value="0"/>
    </processing>

    <junctions>
        <no-turnarounds value="true"/>
        <junctions.corner-detail value="5"/>
        <junctions.limit-turn-speed value="5.50"/>
        <rectangular-lane-cut value="0"/>
    </junctions>

    <pedestrian>
        <walkingareas value="0"/>
    </pedestrian>

    <netedit>
        <additional-files value="C:\Users\Paulinho\Desktop\Master-Thesis\nodes\no_devesas_poi.xml"/>
    </netedit>

</configuration>
-->

<net version="1.9" junctionCornerDetail="5" limitTurnSpeed="5.50" xmlns:xsi="http://www.w3.org/2001/XMLSchema-instance" xsi:noNamespaceSchemaLocation="http://sumo.dlr.de/xsd/net_file.xsd">

    <location netOffset="-524914.43,-4544541.91" convBoundary="5565.96,8272.74,5753.71,8660.11" origBoundary="-8.702913,41.051318,-8.236192,41.279522" projParameter="+proj=utm +zone=29 +ellps=WGS84 +datum=WGS84 +units=m +no_defs"/>

    <type id="highway.bridleway" priority="1" numLanes="1" speed="2.78" allow="pedestrian" oneway="1" width="2.00"/>
    <type id="highway.bus_guideway" priority="1" numLanes="1" speed="27.78" allow="bus" oneway="1"/>
    <type id="highway.cycleway" priority="1" numLanes="1" speed="5.56" allow="bicycle" oneway="0" width="1.00"/>
    <type id="highway.footway" priority="1" numLanes="1" speed="2.78" allow="pedestrian" oneway="1" width="2.00"/>
    <type id="highway.ford" priority="1" numLanes="1" speed="2.78" allow="army" oneway="0"/>
    <type id="highway.living_street" priority="2" numLanes="1" speed="2.78" disallow="tram rail_urban rail rail_electric rail_fast ship" oneway="0"/>
    <type id="highway.motorway" priority="14" numLanes="2" speed="39.44" allow="private emergency authority army vip passenger hov taxi bus coach delivery truck trailer motorcycle evehicle custom1 custom2" oneway="1"/>
    <type id="highway.motorway_link" priority="9" numLanes="1" speed="22.22" allow="private emergency authority army vip passenger hov taxi bus coach delivery truck trailer motorcycle evehicle custom1 custom2" oneway="1"/>
    <type id="highway.path" priority="1" numLanes="1" speed="5.56" allow="pedestrian bicycle" oneway="0" width="2.00"/>
    <type id="highway.pedestrian" priority="1" numLanes="1" speed="2.78" allow="pedestrian" oneway="1" width="2.00"/>
    <type id="highway.primary" priority="12" numLanes="2" speed="27.78" disallow="tram rail_urban rail rail_electric rail_fast ship" oneway="0"/>
    <type id="highway.primary_link" priority="7" numLanes="1" speed="22.22" disallow="tram rail_urban rail rail_electric rail_fast ship" oneway="0"/>
    <type id="highway.raceway" priority="15" numLanes="2" speed="83.33" allow="vip" oneway="0"/>
    <type id="highway.residential" priority="3" numLanes="1" speed="13.89" disallow="tram rail_urban rail rail_electric rail_fast ship" oneway="0"/>
    <type id="highway.secondary" priority="11" numLanes="1" speed="27.78" disallow="tram rail_urban rail rail_electric rail_fast ship" oneway="0"/>
    <type id="highway.secondary_link" priority="6" numLanes="1" speed="22.22" disallow="tram rail_urban rail rail_electric rail_fast ship" oneway="0"/>
    <type id="highway.service" priority="1" numLanes="1" speed="5.56" allow="pedestrian delivery bicycle" oneway="0"/>
    <type id="highway.stairs" priority="1" numLanes="1" speed="1.39" allow="pedestrian" oneway="1" width="2.00"/>
    <type id="highway.step" priority="1" numLanes="1" speed="1.39" allow="pedestrian" oneway="1" width="2.00"/>
    <type id="highway.steps" priority="1" numLanes="1" speed="1.39" allow="pedestrian" oneway="1" width="2.00"/>
    <type id="highway.tertiary" priority="10" numLanes="1" speed="22.22" disallow="tram rail_urban rail rail_electric rail_fast ship" oneway="0"/>
    <type id="highway.tertiary_link" priority="5" numLanes="1" speed="22.22" disallow="tram rail_urban rail rail_electric rail_fast ship" oneway="0"/>
    <type id="highway.track" priority="1" numLanes="1" speed="5.56" allow="pedestrian motorcycle moped bicycle" oneway="0"/>
    <type id="highway.trunk" priority="13" numLanes="2" speed="27.78" disallow="pedestrian bicycle tram rail_urban rail rail_electric rail_fast ship" oneway="0"/>
    <type id="highway.trunk_link" priority="8" numLanes="1" speed="22.22" disallow="pedestrian bicycle tram rail_urban rail rail_electric rail_fast ship" oneway="0"/>
    <type id="highway.unclassified" priority="4" numLanes="1" speed="13.89" disallow="tram rail_urban rail rail_electric rail_fast ship" oneway="0"/>
    <type id="highway.unsurfaced" priority="1" numLanes="1" speed="8.33" disallow="tram rail_urban rail rail_electric rail_fast ship" oneway="0"/>
    <type id="railway.highspeed" priority="21" numLanes="1" speed="69.44" allow="rail_fast" oneway="1"/>
    <type id="railway.light_rail" priority="19" numLanes="1" speed="27.78" allow="rail_urban" oneway="1"/>
    <type id="railway.preserved" priority="16" numLanes="1" speed="27.78" allow="rail" oneway="1"/>
    <type id="railway.rail" priority="20" numLanes="1" speed="44.44" allow="rail" oneway="1"/>
    <type id="railway.subway" priority="18" numLanes="1" speed="27.78" allow="rail_urban" oneway="1"/>
    <type id="railway.tram" priority="17" numLanes="1" speed="13.89" allow="tram" oneway="1"/>

    <edge id=":1145510972_0" function="internal">
        <lane id=":1145510972_0_0" index="0" allow="private emergency authority army vip passenger hov taxi bus coach delivery truck trailer motorcycle evehicle custom1 custom2" speed="23.61" length="10.76" shape="5675.77,8385.45 5682.72,8393.67"/>
    </edge>
    <edge id=":1145510972_1" function="internal">
        <lane id=":1145510972_1_0" index="0" allow="private emergency authority army vip passenger hov taxi bus coach delivery truck trailer motorcycle evehicle custom1 custom2" speed="25.00" length="4.47" shape="5672.57,8385.62 5672.62,8391.08"/>
        <lane id=":1145510972_1_1" index="1" allow="private emergency authority army vip passenger hov taxi bus coach delivery truck trailer motorcycle evehicle custom1 custom2" speed="25.00" length="4.47" shape="5669.37,8385.79 5669.43,8390.26"/>
        <lane id=":1145510972_1_2" index="2" allow="private emergency authority army vip passenger hov taxi bus coach delivery truck trailer motorcycle evehicle custom1 custom2" speed="25.00" length="4.47" shape="5666.18,8385.96 5666.24,8389.45"/>
    </edge>
    <edge id=":1838975461_0" function="internal">
        <lane id=":1838975461_0_0" index="0" allow="private emergency authority army vip passenger hov taxi bus coach delivery truck trailer motorcycle evehicle custom1 custom2" speed="23.61" length="3.91" shape="5651.54,8562.07 5651.50,8560.90 5651.50,8560.11 5651.54,8559.32 5651.62,8558.16"/>
    </edge>
    <edge id=":1838975461_1" function="internal">
        <lane id=":1838975461_1_0" index="0" allow="private emergency authority army vip passenger hov taxi bus coach delivery truck trailer motorcycle evehicle custom1 custom2" speed="25.00" length="3.15" shape="5654.74,8561.91 5654.63,8558.37"/>
        <lane id=":1838975461_1_1" index="1" allow="private emergency authority army vip passenger hov taxi bus coach delivery truck trailer motorcycle evehicle custom1 custom2" speed="25.00" length="3.15" shape="5657.94,8561.75 5657.84,8558.59"/>
        <lane id=":1838975461_1_2" index="2" allow="private emergency authority army vip passenger hov taxi bus coach delivery truck trailer motorcycle evehicle custom1 custom2" speed="25.00" length="3.15" shape="5661.13,8561.59 5661.04,8558.82"/>
    </edge>
    <edge id=":1838975466_0" function="internal">
        <lane id=":1838975466_0_0" index="0" allow="private emergency authority army vip passenger hov taxi bus coach delivery truck trailer motorcycle evehicle custom1 custom2" speed="25.00" length="2.72" shape="5676.66,8549.14 5676.81,8552.06"/>
        <lane id=":1838975466_0_1" index="1" allow="private emergency authority army vip passenger hov taxi bus coach delivery truck trailer motorcycle evehicle custom1 custom2" speed="25.00" length="2.72" shape="5673.47,8549.40 5673.61,8552.12"/>
        <lane id=":1838975466_0_2" index="2" allow="private emergency authority army vip passenger hov taxi bus coach delivery truck trailer motorcycle evehicle custom1 custom2" speed="25.00" length="2.72" shape="5670.28,8549.66 5670.41,8552.19"/>
    </edge>
    <edge id=":1838975466_3" function="internal">
        <lane id=":1838975466_3_0" index="0" allow="private emergency authority army vip passenger hov taxi bus coach delivery truck trailer motorcycle evehicle custom1 custom2" speed="23.61" length="3.12" shape="5679.83,8548.89 5680.01,8552.00"/>
    </edge>
    <edge id=":685214568_0" function="internal">
        <lane id=":685214568_0_0" index="0" allow="private emergency authority army vip passenger hov taxi bus coach delivery truck trailer motorcycle evehicle custom1 custom2" speed="25.00" length="2.81" shape="5648.50,8390.03 5648.34,8387.07"/>
        <lane id=":685214568_0_1" index="1" allow="private emergency authority army vip passenger hov taxi bus coach delivery truck trailer motorcycle evehicle custom1 custom2" speed="25.00" length="2.81" shape="5651.69,8389.81 5651.54,8387.00"/>
        <lane id=":685214568_0_2" index="2" allow="private emergency authority army vip passenger hov taxi bus coach delivery truck trailer motorcycle evehicle custom1 custom2" speed="25.00" length="2.81" shape="5654.88,8389.59 5654.74,8386.92"/>
    </edge>
    <edge id=":685214568_3" function="internal">
        <lane id=":685214568_3_0" index="0" allow="private emergency authority army vip passenger hov taxi bus coach delivery truck trailer motorcycle evehicle custom1 custom2" speed="23.61" length="3.12" shape="5645.55,8390.24 5645.37,8389.33 5645.25,8388.70 5645.18,8388.07 5645.14,8387.15"/>
    </edge>

    <edge id="173072184" from="J0" to="685214568" name="N贸 das Devesas" priority="9" type="highway.motorway_link" spreadType="center" shape="5565.96,8468.05 5606.94,8464.42 5623.76,8458.25 5637.28,8442.51 5641.45,8434.81 5645.62,8423.80 5649.01,8408.80 5645.18,8388.27">
        <lane id="173072184_0" index="0" allow="private emergency authority army vip passenger hov taxi bus coach delivery truck trailer motorcycle evehicle custom1 custom2" speed="22.22" length="134.60" shape="5565.96,8468.05 5606.94,8464.42 5623.76,8458.25 5637.28,8442.51 5641.45,8434.81 5645.62,8423.80 5649.01,8408.80 5645.55,8390.24">
            <param key="origId" value="173072184"/>
        </lane>
    </edge>
    <edge id="461172813-AddedOffRampEdge" from="461172813-AddedOffRampNode" to="1838975461" name="Via de Cintura Interna" priority="14" type="highway.motorway" spreadType="center" shape="5661.22,8660.11 5656.26,8560.24">
        <lane id="461172813-AddedOffRampEdge_0" index="0" allow="private emergency authority army vip passenger hov taxi bus coach delivery truck trailer motorcycle evehicle custom1 custom2" speed="25.00" length="98.40" shape="5656.43,8660.35 5651.54,8562.07">
            <param key="origId" value="461172813 461172812 99016362 460986075 460986072"/>
        </lane>
        <lane id="461172813-AddedOffRampEdge_1" index="1" allow="private emergency authority army vip passenger hov taxi bus coach delivery truck trailer motorcycle evehicle custom1 custom2" speed="25.00" length="98.40" shape="5659.62,8660.19 5654.74,8561.91">
            <param key="origId" value="461172813 461172812 99016362 460986075 460986072"/>
        </lane>
        <lane id="461172813-AddedOffRampEdge_2" index="2" allow="private emergency authority army vip passenger hov taxi bus coach delivery truck trailer motorcycle evehicle custom1 custom2" speed="25.00" length="98.40" shape="5662.82,8660.03 5657.94,8561.75">
            <param key="origId" value="461172813 461172812 99016362 460986075 460986072"/>
        </lane>
        <lane id="461172813-AddedOffRampEdge_3" index="3" allow="private emergency authority army vip passenger hov taxi bus coach delivery truck trailer motorcycle evehicle custom1 custom2" speed="25.00" length="98.40" shape="5666.01,8659.87 5661.13,8561.59">
            <param key="origId" value="461172813 461172812 99016362 460986075 460986072"/>
        </lane>
        <param key="ref" value="A 1"/>
    </edge>
    <edge id="461173094-AddedOffRampEdge" from="461173094-AddedOffRampNode" to="1145510972" name="Via de Cintura Interna" priority="14" type="highway.motorway" spreadType="center" shape="5667.58,8312.83 5668.29,8334.30 5672.38,8412.68">
        <lane id="461173094-AddedOffRampEdge_0" index="0" allow="private emergency authority army vip passenger hov taxi bus coach delivery truck trailer motorcycle evehicle custom1 custom2" speed="25.00" length="72.96" shape="5672.38,8312.67 5673.09,8334.10 5675.77,8385.45">
            <param key="origId" value="461173094 461173091 460986041 460986039"/>
        </lane>
        <lane id="461173094-AddedOffRampEdge_1" index="1" allow="private emergency authority army vip passenger hov taxi bus coach delivery truck trailer motorcycle evehicle custom1 custom2" speed="25.00" length="72.96" shape="5669.18,8312.77 5669.89,8334.23 5672.57,8385.62">
            <param key="origId" value="461173094 461173091 460986041 460986039"/>
        </lane>
        <lane id="461173094-AddedOffRampEdge_2" index="2" allow="private emergency authority army vip passenger hov taxi bus coach delivery truck trailer motorcycle evehicle custom1 custom2" speed="25.00" length="72.96" shape="5665.98,8312.88 5666.69,8334.37 5669.37,8385.79">
            <param key="origId" value="461173094 461173091 460986041 460986039"/>
        </lane>
        <lane id="461173094-AddedOffRampEdge_3" index="3" allow="private emergency authority army vip passenger hov taxi bus coach delivery truck trailer motorcycle evehicle custom1 custom2" speed="25.00" length="72.96" shape="5662.78,8312.99 5663.49,8334.50 5666.18,8385.96">
            <param key="origId" value="461173094 461173091 460986041 460986039"/>
        </lane>
        <param key="ref" value="A 1"/>
    </edge>
    <edge id="54375651#0" from="1145510972" to="1838975437" name="N贸 das Devesas" priority="9" type="highway.motorway_link" spreadType="center" shape="5677.17,8412.43 5673.11,8426.16 5677.07,8437.16 5680.46,8444.34 5685.02,8451.68 5699.87,8464.01 5720.54,8471.12 5743.50,8467.43">
        <lane id="54375651#0_0" index="0" allow="private emergency authority army vip passenger hov taxi bus coach delivery truck trailer motorcycle evehicle custom1 custom2" speed="22.22" length="126.57" shape="5682.72,8393.67 5673.11,8426.16 5677.07,8437.16 5680.46,8444.34 5685.02,8451.68 5699.87,8464.01 5720.54,8471.12 5743.50,8467.43">
            <param key="origId" value="54375651"/>
        </lane>
        <param key="origTo" value="1838975437"/>
    </edge>
    <edge id="54375654" from="1838975441" to="1838975466" name="N贸 das Devesas" priority="9" type="highway.motorway_link" spreadType="center" shape="5753.71,8480.40 5739.62,8477.65 5719.45,8480.68 5704.08,8486.86 5690.85,8497.38 5682.60,8511.09 5677.98,8527.73 5679.98,8550.65">
        <lane id="54375654_0" index="0" allow="private emergency authority army vip passenger hov taxi bus coach delivery truck trailer motorcycle evehicle custom1 custom2" speed="22.22" length="122.73" shape="5753.71,8480.40 5739.62,8477.65 5719.45,8480.68 5704.08,8486.86 5690.85,8497.38 5682.60,8511.09 5677.98,8527.73 5679.83,8548.89">
            <param key="origId" value="54375654"/>
        </lane>
        <param key="origFrom" value="1838975441"/>
    </edge>
    <edge id="54509443" from="1838975461" to="J1" name="N贸 das Devesas" priority="9" type="highway.motorway_link" spreadType="center" shape="5651.46,8560.48 5653.35,8533.46 5647.61,8507.34 5636.87,8490.25 5621.86,8479.13 5606.32,8473.97 5566.23,8475.89">
        <lane id="54509443_0" index="0" allow="private emergency authority army vip passenger hov taxi bus coach delivery truck trailer motorcycle evehicle custom1 custom2" speed="22.22" length="146.88" shape="5651.62,8558.16 5653.35,8533.46 5647.61,8507.34 5636.87,8490.25 5621.86,8479.13 5606.32,8473.97 5566.23,8475.89">
            <param key="origId" value="54509443"/>
        </lane>
    </edge>
    <edge id="597084093" from="685214568" to="1146570357" name="Via de Cintura Interna" priority="14" type="highway.motorway" spreadType="center" shape="5649.97,8388.15 5647.24,8272.78">
        <lane id="597084093_0" index="0" allow="private emergency authority army vip passenger hov taxi bus coach delivery truck trailer motorcycle evehicle custom1 custom2" speed="25.00" length="114.29" acceleration="1" shape="5645.14,8387.15 5642.44,8272.89">
            <param key="origId" value="597084093"/>
        </lane>
        <lane id="597084093_1" index="1" allow="private emergency authority army vip passenger hov taxi bus coach delivery truck trailer motorcycle evehicle custom1 custom2" speed="25.00" length="114.29" shape="5648.34,8387.07 5645.64,8272.82">
            <param key="origId" value="597084093"/>
        </lane>
        <lane id="597084093_2" index="2" allow="private emergency authority army vip passenger hov taxi bus coach delivery truck trailer motorcycle evehicle custom1 custom2" speed="25.00" length="114.29" shape="5651.54,8387.00 5648.84,8272.74">
            <param key="origId" value="597084093"/>
        </lane>
        <lane id="597084093_3" index="3" allow="private emergency authority army vip passenger hov taxi bus coach delivery truck trailer motorcycle evehicle custom1 custom2" speed="25.00" length="114.29" shape="5654.74,8386.92 5652.04,8272.66">
            <param key="origId" value="597084093"/>
        </lane>
        <param key="ref" value="A 1"/>
    </edge>
    <edge id="597084094" from="1838975461" to="685214568" name="Via de Cintura Interna" priority="14" type="highway.motorway" spreadType="center" shape="5657.85,8560.16 5657.42,8512.67 5656.49,8465.07 5654.28,8426.57 5651.57,8388.11">
        <lane id="597084094_0" index="0" allow="private emergency authority army vip passenger hov taxi bus coach delivery truck trailer motorcycle evehicle custom1 custom2" speed="25.00" length="168.95" shape="5654.63,8558.37 5654.22,8512.72 5653.29,8465.19 5651.09,8426.77 5648.50,8390.03">
            <param key="origId" value="597084094"/>
        </lane>
        <lane id="597084094_1" index="1" allow="private emergency authority army vip passenger hov taxi bus coach delivery truck trailer motorcycle evehicle custom1 custom2" speed="25.00" length="168.95" shape="5657.84,8558.59 5657.42,8512.67 5656.49,8465.07 5654.28,8426.57 5651.69,8389.81">
            <param key="origId" value="597084094"/>
        </lane>
        <lane id="597084094_2" index="2" allow="private emergency authority army vip passenger hov taxi bus coach delivery truck trailer motorcycle evehicle custom1 custom2" speed="25.00" length="168.95" shape="5661.04,8558.82 5660.62,8512.62 5659.69,8464.95 5657.47,8426.37 5654.88,8389.59">
            <param key="origId" value="597084094"/>
        </lane>
        <param key="ref" value="A 1"/>
    </edge>
    <edge id="95367763#0" from="1145510972" to="1838975466" name="Via de Cintura Interna" priority="14" type="highway.motorway" spreadType="center" shape="5669.18,8412.84 5668.83,8444.52 5669.40,8478.09 5670.78,8516.19 5673.58,8550.78">
        <lane id="95367763#0_0" index="0" allow="private emergency authority army vip passenger hov taxi bus coach delivery truck trailer motorcycle evehicle custom1 custom2" speed="25.00" length="159.28" shape="5672.62,8391.08 5672.03,8444.51 5672.60,8478.00 5673.98,8516.00 5676.66,8549.14">
            <param key="origId" value="95367763"/>
        </lane>
        <lane id="95367763#0_1" index="1" allow="private emergency authority army vip passenger hov taxi bus coach delivery truck trailer motorcycle evehicle custom1 custom2" speed="25.00" length="159.28" shape="5669.43,8390.26 5668.83,8444.52 5669.40,8478.09 5670.78,8516.19 5673.47,8549.40">
            <param key="origId" value="95367763"/>
        </lane>
        <lane id="95367763#0_2" index="2" allow="private emergency authority army vip passenger hov taxi bus coach delivery truck trailer motorcycle evehicle custom1 custom2" speed="25.00" length="159.28" shape="5666.24,8389.45 5665.63,8444.53 5666.20,8478.18 5667.58,8516.38 5670.28,8549.66">
            <param key="origId" value="95367763"/>
        </lane>
        <param key="ref" value="A 1"/>
    </edge>
    <edge id="95367763#1-AddedOnRampEdge" from="1838975466" to="95367763#1-AddedOnRampNode" name="Via de Cintura Interna" priority="14" type="highway.motorway" spreadType="center" shape="5675.18,8550.74 5676.36,8610.93 5677.31,8650.71">
        <lane id="95367763#1-AddedOnRampEdge_0" index="0" allow="private emergency authority army vip passenger hov taxi bus coach delivery truck trailer motorcycle evehicle custom1 custom2" speed="25.00" length="98.64" acceleration="1" shape="5680.01,8552.00 5681.16,8610.83 5682.11,8650.60">
            <param key="origId" value="95367763 461172814 461172815"/>
        </lane>
        <lane id="95367763#1-AddedOnRampEdge_1" index="1" allow="private emergency authority army vip passenger hov taxi bus coach delivery truck trailer motorcycle evehicle custom1 custom2" speed="25.00" length="98.64" shape="5676.81,8552.06 5677.96,8610.90 5678.91,8650.67">
            <param key="origId" value="95367763 461172814 461172815"/>
        </lane>
        <lane id="95367763#1-AddedOnRampEdge_2" index="2" allow="private emergency authority army vip passenger hov taxi bus coach delivery truck trailer motorcycle evehicle custom1 custom2" speed="25.00" length="98.64" shape="5673.61,8552.12 5674.76,8610.96 5675.71,8650.75">
            <param key="origId" value="95367763 461172814 461172815"/>
        </lane>
        <lane id="95367763#1-AddedOnRampEdge_3" index="3" allow="private emergency authority army vip passenger hov taxi bus coach delivery truck trailer motorcycle evehicle custom1 custom2" speed="25.00" length="98.64" shape="5670.41,8552.19 5671.56,8611.03 5672.51,8650.83">
            <param key="origId" value="95367763 461172814 461172815"/>
        </lane>
        <param key="ref" value="A 1"/>
    </edge>

    <junction id="1145510972" type="priority" x="5669.18" y="8412.84" incLanes="461173094-AddedOffRampEdge_0 461173094-AddedOffRampEdge_1 461173094-AddedOffRampEdge_2 461173094-AddedOffRampEdge_3" intLanes=":1145510972_0_0 :1145510972_1_0 :1145510972_1_1 :1145510972_1_2" shape="5677.36,8385.37 5664.58,8386.04 5664.64,8389.04 5684.27,8394.06 5684.32,8391.96 5683.24,8390.68 5681.52,8389.80 5679.63,8388.91 5678.08,8387.57">
        <request index="0" response="0000" foes="0000" cont="0"/>
        <request index="1" response="0000" foes="0000" cont="0"/>
        <request index="2" response="0000" foes="0000" cont="0"/>
        <request index="3" response="0000" foes="0000" cont="0"/>
    </junction>
    <junction id="1146570357" type="dead_end" x="5648.84" y="8272.74" incLanes="597084093_0 597084093_1 597084093_2 597084093_3" intLanes="" shape="5640.84,8272.93 5653.64,8272.63"/>
    <junction id="1838975437" type="dead_end" x="5743.50" y="8467.43" incLanes="54375651#0_0" intLanes="" shape="5743.25,8465.85 5743.75,8469.01"/>
    <junction id="1838975441" type="dead_end" x="5753.71" y="8480.40" incLanes="" intLanes="" shape="5754.02,8478.83 5753.40,8481.97"/>
    <junction id="1838975461" type="priority" x="5657.85" y="8560.16" incLanes="461172813-AddedOffRampEdge_0 461172813-AddedOffRampEdge_1 461172813-AddedOffRampEdge_2 461172813-AddedOffRampEdge_3" intLanes=":1838975461_0_0 :1838975461_1_0 :1838975461_1_1 :1838975461_1_2" shape="5649.95,8562.14 5662.73,8561.51 5662.64,8558.93 5650.03,8558.04 5649.92,8559.56 5649.89,8560.09 5649.89,8560.63 5649.91,8561.27">
        <request index="0" response="0000" foes="0000" cont="0"/>
        <request index="1" response="0000" foes="0000" cont="0"/>
        <request index="2" response="0000" foes="0000" cont="0"/>
        <request index="3" response="0000" foes="0000" cont="0"/>
    </junction>
    <junction id="1838975466" type="priority" x="5673.58" y="8550.78" incLanes="95367763#0_0 95367763#0_1 95367763#0_2 54375654_0" intLanes=":1838975466_0_0 :1838975466_0_1 :1838975466_0_2 :1838975466_3_0" shape="5668.81,8552.22 5681.61,8551.97 5681.42,8548.76 5668.68,8549.79">
        <request index="0" response="0000" foes="0000" cont="0"/>
        <request index="1" response="0000" foes="0000" cont="0"/>
        <request index="2" response="0000" foes="0000" cont="0"/>
        <request index="3" response="0000" foes="0000" cont="0"/>
    </junction>
    <junction id="461172813-AddedOffRampNode" type="dead_end" x="5662.82" y="8660.03" incLanes="" intLanes="" shape="5667.61,8659.79 5654.83,8660.43"/>
    <junction id="461173094-AddedOffRampNode" type="dead_end" x="5665.98" y="8312.88" incLanes="" intLanes="" shape="5661.18,8313.04 5673.98,8312.62"/>
    <junction id="685214568" type="priority" x="5651.57" y="8388.11" incLanes="597084094_0 597084094_1 597084094_2 173072184_0" intLanes=":685214568_0_0 :685214568_0_1 :685214568_0_2 :685214568_3_0" shape="5643.94,8390.35 5656.48,8389.48 5656.34,8386.88 5643.55,8387.19 5643.60,8388.37 5643.65,8388.78 5643.72,8389.19">
        <request index="0" response="0000" foes="0000" cont="0"/>
        <request index="1" response="0000" foes="0000" cont="0"/>
        <request index="2" response="0000" foes="0000" cont="0"/>
        <request index="3" response="0000" foes="0000" cont="0"/>
    </junction>
    <junction id="95367763#1-AddedOnRampNode" type="dead_end" x="5675.71" y="8650.75" incLanes="95367763#1-AddedOnRampEdge_0 95367763#1-AddedOnRampEdge_1 95367763#1-AddedOnRampEdge_2 95367763#1-AddedOnRampEdge_3" intLanes="" shape="5683.71,8650.56 5670.91,8650.86"/>
    <junction id="J0" type="dead_end" x="5565.96" y="8468.05" incLanes="" intLanes="" shape="5566.10,8469.64 5565.82,8466.46"/>
    <junction id="J1" type="dead_end" x="5566.23" y="8475.89" incLanes="54509443_0" intLanes="" shape="5566.31,8477.49 5566.15,8474.29"/>

    <connection from="173072184" to="597084093" fromLane="0" toLane="0" via=":685214568_3_0" dir="s" state="M"/>
    <connection from="461172813-AddedOffRampEdge" to="54509443" fromLane="0" toLane="0" via=":1838975461_0_0" dir="s" state="M"/>
    <connection from="461172813-AddedOffRampEdge" to="597084094" fromLane="1" toLane="0" via=":1838975461_1_0" dir="s" state="M"/>
    <connection from="461172813-AddedOffRampEdge" to="597084094" fromLane="2" toLane="1" via=":1838975461_1_1" dir="s" state="M"/>
    <connection from="461172813-AddedOffRampEdge" to="597084094" fromLane="3" toLane="2" via=":1838975461_1_2" dir="s" state="M"/>
    <connection from="461173094-AddedOffRampEdge" to="54375651#0" fromLane="0" toLane="0" via=":1145510972_0_0" dir="L" state="M"/>
    <connection from="461173094-AddedOffRampEdge" to="95367763#0" fromLane="1" toLane="0" via=":1145510972_1_0" dir="s" state="M"/>
    <connection from="461173094-AddedOffRampEdge" to="95367763#0" fromLane="2" toLane="1" via=":1145510972_1_1" dir="s" state="M"/>
    <connection from="461173094-AddedOffRampEdge" to="95367763#0" fromLane="3" toLane="2" via=":1145510972_1_2" dir="s" state="M"/>
    <connection from="54375654" to="95367763#1-AddedOnRampEdge" fromLane="0" toLane="0" via=":1838975466_3_0" dir="s" state="M"/>
    <connection from="597084094" to="597084093" fromLane="0" toLane="1" via=":685214568_0_0" dir="s" state="M"/>
    <connection from="597084094" to="597084093" fromLane="1" toLane="2" via=":685214568_0_1" dir="s" state="M"/>
    <connection from="597084094" to="597084093" fromLane="2" toLane="3" via=":685214568_0_2" dir="s" state="M"/>
    <connection from="95367763#0" to="95367763#1-AddedOnRampEdge" fromLane="0" toLane="1" via=":1838975466_0_0" dir="s" state="M"/>
    <connection from="95367763#0" to="95367763#1-AddedOnRampEdge" fromLane="1" toLane="2" via=":1838975466_0_1" dir="s" state="M"/>
    <connection from="95367763#0" to="95367763#1-AddedOnRampEdge" fromLane="2" toLane="3" via=":1838975466_0_2" dir="s" state="M"/>

    <connection from=":1145510972_0" to="54375651#0" fromLane="0" toLane="0" dir="L" state="M"/>
    <connection from=":1145510972_1" to="95367763#0" fromLane="0" toLane="0" dir="s" state="M"/>
    <connection from=":1145510972_1" to="95367763#0" fromLane="1" toLane="1" dir="s" state="M"/>
    <connection from=":1145510972_1" to="95367763#0" fromLane="2" toLane="2" dir="s" state="M"/>
    <connection from=":1838975461_0" to="54509443" fromLane="0" toLane="0" dir="s" state="M"/>
    <connection from=":1838975461_1" to="597084094" fromLane="0" toLane="0" dir="s" state="M"/>
    <connection from=":1838975461_1" to="597084094" fromLane="1" toLane="1" dir="s" state="M"/>
    <connection from=":1838975461_1" to="597084094" fromLane="2" toLane="2" dir="s" state="M"/>
    <connection from=":1838975466_0" to="95367763#1-AddedOnRampEdge" fromLane="0" toLane="1" dir="s" state="M"/>
    <connection from=":1838975466_0" to="95367763#1-AddedOnRampEdge" fromLane="1" toLane="2" dir="s" state="M"/>
    <connection from=":1838975466_0" to="95367763#1-AddedOnRampEdge" fromLane="2" toLane="3" dir="s" state="M"/>