<?xml version="1.0" encoding="UTF-8"?>

<!-- generated on 2023-03-15 16:26:26 by Eclipse SUMO netedit Version 1.15.0
<configuration xmlns:xsi="http://www.w3.org/2001/XMLSchema-instance" xsi:noNamespaceSchemaLocation="http://sumo.dlr.de/xsd/netconvertConfiguration.xsd">

    <input>
        <sumo-net-file value="C:\Users\Paulinho\Desktop\Master-Thesis\nodes\no_douro_minho.net.xml"/>
    </input>

    <output>
        <output-file value="C:\Users\Paulinho\Desktop\Master-Thesis\nodes\no_douro_minho.net.xml"/>
        <output.street-names value="true"/>
    </output>

    <processing>
        <geometry.min-radius.fix.railways value="false"/>
        <geometry.max-grade.fix value="false"/>
        <offset.disable-normalization value="true"/>
        <lefthand value="0"/>
    </processing>

    <junctions>
        <no-turnarounds value="true"/>
        <junctions.corner-detail value="5"/>
        <junctions.limit-turn-speed value="5.50"/>
        <rectangular-lane-cut value="0"/>
    </junctions>

    <pedestrian>
        <walkingareas value="0"/>
    </pedestrian>

    <netedit>
        <additional-files value="C:\Users\Paulinho\Desktop\Master-Thesis\nodes\no_douro_minho_poi.xml"/>
    </netedit>

</configuration>
-->

<net version="1.9" junctionCornerDetail="5" limitTurnSpeed="5.50" xmlns:xsi="http://www.w3.org/2001/XMLSchema-instance" xsi:noNamespaceSchemaLocation="http://sumo.dlr.de/xsd/net_file.xsd">

    <location netOffset="-524914.43,-4544541.91" convBoundary="8394.80,13074.32,9433.83,13650.31" origBoundary="-8.702913,41.051318,-8.236192,41.279522" projParameter="+proj=utm +zone=29 +ellps=WGS84 +datum=WGS84 +units=m +no_defs"/>

    <type id="highway.bridleway" priority="1" numLanes="1" speed="2.78" allow="pedestrian" oneway="1" width="2.00"/>
    <type id="highway.bus_guideway" priority="1" numLanes="1" speed="27.78" allow="bus" oneway="1"/>
    <type id="highway.cycleway" priority="1" numLanes="1" speed="5.56" allow="bicycle" oneway="0" width="1.00"/>
    <type id="highway.footway" priority="1" numLanes="1" speed="2.78" allow="pedestrian" oneway="1" width="2.00"/>
    <type id="highway.ford" priority="1" numLanes="1" speed="2.78" allow="army" oneway="0"/>
    <type id="highway.living_street" priority="2" numLanes="1" speed="2.78" disallow="tram rail_urban rail rail_electric rail_fast ship" oneway="0"/>
    <type id="highway.motorway" priority="14" numLanes="2" speed="39.44" allow="private emergency authority army vip passenger hov taxi bus coach delivery truck trailer motorcycle evehicle custom1 custom2" oneway="1"/>
    <type id="highway.motorway_link" priority="9" numLanes="1" speed="22.22" allow="private emergency authority army vip passenger hov taxi bus coach delivery truck trailer motorcycle evehicle custom1 custom2" oneway="1"/>
    <type id="highway.path" priority="1" numLanes="1" speed="5.56" allow="pedestrian bicycle" oneway="0" width="2.00"/>
    <type id="highway.pedestrian" priority="1" numLanes="1" speed="2.78" allow="pedestrian" oneway="1" width="2.00"/>
    <type id="highway.primary" priority="12" numLanes="2" speed="27.78" disallow="tram rail_urban rail rail_electric rail_fast ship" oneway="0"/>
    <type id="highway.primary_link" priority="7" numLanes="1" speed="22.22" disallow="tram rail_urban rail rail_electric rail_fast ship" oneway="0"/>
    <type id="highway.raceway" priority="15" numLanes="2" speed="83.33" allow="vip" oneway="0"/>
    <type id="highway.residential" priority="3" numLanes="1" speed="13.89" disallow="tram rail_urban rail rail_electric rail_fast ship" oneway="0"/>
    <type id="highway.secondary" priority="11" numLanes="1" speed="27.78" disallow="tram rail_urban rail rail_electric rail_fast ship" oneway="0"/>
    <type id="highway.secondary_link" priority="6" numLanes="1" speed="22.22" disallow="tram rail_urban rail rail_electric rail_fast ship" oneway="0"/>
    <type id="highway.service" priority="1" numLanes="1" speed="5.56" allow="pedestrian delivery bicycle" oneway="0"/>
    <type id="highway.stairs" priority="1" numLanes="1" speed="1.39" allow="pedestrian" oneway="1" width="2.00"/>
    <type id="highway.step" priority="1" numLanes="1" speed="1.39" allow="pedestrian" oneway="1" width="2.00"/>
    <type id="highway.steps" priority="1" numLanes="1" speed="1.39" allow="pedestrian" oneway="1" width="2.00"/>
    <type id="highway.tertiary" priority="10" numLanes="1" speed="22.22" disallow="tram rail_urban rail rail_electric rail_fast ship" oneway="0"/>
    <type id="highway.tertiary_link" priority="5" numLanes="1" speed="22.22" disallow="tram rail_urban rail rail_electric rail_fast ship" oneway="0"/>
    <type id="highway.track" priority="1" numLanes="1" speed="5.56" allow="pedestrian motorcycle moped bicycle" oneway="0"/>
    <type id="highway.trunk" priority="13" numLanes="2" speed="27.78" disallow="pedestrian bicycle tram rail_urban rail rail_electric rail_fast ship" oneway="0"/>
    <type id="highway.trunk_link" priority="8" numLanes="1" speed="22.22" disallow="pedestrian bicycle tram rail_urban rail rail_electric rail_fast ship" oneway="0"/>
    <type id="highway.unclassified" priority="4" numLanes="1" speed="13.89" disallow="tram rail_urban rail rail_electric rail_fast ship" oneway="0"/>
    <type id="highway.unsurfaced" priority="1" numLanes="1" speed="8.33" disallow="tram rail_urban rail rail_electric rail_fast ship" oneway="0"/>
    <type id="railway.highspeed" priority="21" numLanes="1" speed="69.44" allow="rail_fast" oneway="1"/>
    <type id="railway.light_rail" priority="19" numLanes="1" speed="27.78" allow="rail_urban" oneway="1"/>
    <type id="railway.preserved" priority="16" numLanes="1" speed="27.78" allow="rail" oneway="1"/>
    <type id="railway.rail" priority="20" numLanes="1" speed="44.44" allow="rail" oneway="1"/>
    <type id="railway.subway" priority="18" numLanes="1" speed="27.78" allow="rail_urban" oneway="1"/>
    <type id="railway.tram" priority="17" numLanes="1" speed="13.89" allow="tram" oneway="1"/>

    <edge id=":112597525_0" function="internal">
        <lane id=":112597525_0_0" index="0" allow="private emergency authority army vip passenger hov taxi bus coach delivery truck trailer motorcycle evehicle custom1 custom2" speed="12.50" length="0.29" shape="8889.10,13306.43 8889.13,13306.40 8889.15,13306.38 8889.17,13306.36 8889.20,13306.32"/>
        <lane id=":112597525_0_1" index="1" allow="private emergency authority army vip passenger hov taxi bus coach delivery truck trailer motorcycle evehicle custom1 custom2" speed="12.50" length="0.29" shape="8891.44,13308.62 8891.53,13308.52 8891.59,13308.46 8891.64,13308.39 8891.72,13308.29"/>
    </edge>
    <edge id=":25532222_0" function="internal">
        <lane id=":25532222_0_0" index="0" allow="private emergency authority army vip passenger hov taxi bus coach delivery truck trailer motorcycle evehicle custom1 custom2" speed="13.89" length="0.27" shape="9028.64,13398.77 9028.57,13398.59"/>
        <lane id=":25532222_0_1" index="1" allow="private emergency authority army vip passenger hov taxi bus coach delivery truck trailer motorcycle evehicle custom1 custom2" speed="13.89" length="0.27" shape="9031.67,13397.73 9031.54,13397.39"/>
    </edge>
    <edge id=":26015879_0" function="internal">
        <lane id=":26015879_0_0" index="0" allow="private emergency authority army vip passenger hov taxi bus coach delivery truck trailer motorcycle evehicle custom1 custom2" speed="19.45" length="2.39" shape="9156.86,13320.79 9156.28,13321.30 9155.86,13321.63 9155.43,13321.94 9154.78,13322.36"/>
        <lane id=":26015879_0_1" index="1" allow="private emergency authority army vip passenger hov taxi bus coach delivery truck trailer motorcycle evehicle custom1 custom2" speed="19.45" length="2.39" shape="9154.75,13318.38 9154.26,13318.80 9153.92,13319.08 9153.56,13319.33 9153.02,13319.69"/>
    </edge>
    <edge id=":26015879_2" function="internal">
        <lane id=":26015879_2_0" index="0" allow="private emergency authority army vip passenger hov taxi bus coach delivery truck trailer motorcycle evehicle custom1 custom2" speed="22.22" length="2.30" shape="9152.64,13315.98 9152.17,13318.39"/>
        <lane id=":26015879_2_1" index="1" allow="private emergency authority army vip passenger hov taxi bus coach delivery truck trailer motorcycle evehicle custom1 custom2" speed="22.22" length="2.30" shape="9150.53,13313.58 9150.41,13315.72"/>
    </edge>
    <edge id=":26015884_0" function="internal">
        <lane id=":26015884_0_0" index="0" allow="private emergency authority army vip passenger hov taxi bus coach delivery truck trailer motorcycle evehicle custom1 custom2" speed="22.22" length="7.17" shape="9065.59,13351.88 9067.35,13351.08 9068.36,13350.15 9069.34,13349.14 9071.00,13348.07"/>
        <lane id=":26015884_0_1" index="1" allow="private emergency authority army vip passenger hov taxi bus coach delivery truck trailer motorcycle evehicle custom1 custom2" speed="22.22" length="7.17" shape="9066.51,13354.94 9068.41,13354.10 9069.52,13353.14 9070.59,13352.08 9072.38,13350.96"/>
        <lane id=":26015884_0_2" index="2" allow="private emergency authority army vip passenger hov taxi bus coach delivery truck trailer motorcycle evehicle custom1 custom2" speed="22.22" length="7.17" shape="9067.43,13358.01 9069.47,13357.13 9070.68,13356.13 9071.84,13355.03 9073.76,13353.85"/>
    </edge>
    <edge id=":26015889_0" function="internal">
        <lane id=":26015889_0_0" index="0" allow="private emergency authority army vip passenger hov taxi bus coach delivery truck trailer motorcycle evehicle custom1 custom2" speed="19.45" length="2.89" shape="8881.85,13371.45 8878.88,13370.68"/>
        <lane id=":26015889_0_1" index="1" allow="private emergency authority army vip passenger hov taxi bus coach delivery truck trailer motorcycle evehicle custom1 custom2" speed="19.45" length="2.89" shape="8882.41,13368.30 8879.80,13367.61"/>
    </edge>
    <edge id=":26015889_2" function="internal">
        <lane id=":26015889_2_0" index="0" allow="private emergency authority army vip passenger hov taxi bus coach delivery truck trailer motorcycle evehicle custom1 custom2" speed="22.22" length="2.16" shape="8882.99,13365.09 8882.31,13364.96 8881.84,13364.87 8881.38,13364.74 8880.72,13364.55"/>
        <lane id=":26015889_2_1" index="1" allow="private emergency authority army vip passenger hov taxi bus coach delivery truck trailer motorcycle evehicle custom1 custom2" speed="22.22" length="2.16" shape="8883.56,13361.94 8882.98,13361.83 8882.59,13361.75 8882.20,13361.65 8881.63,13361.48"/>
    </edge>
    <edge id=":26015892_0" function="internal">
        <lane id=":26015892_0_0" index="0" allow="private emergency authority army vip passenger hov taxi bus coach delivery truck trailer motorcycle evehicle custom1 custom2" speed="18.05" length="2.86" shape="8800.83,13316.81 8803.56,13317.49"/>
        <lane id=":26015892_0_1" index="1" allow="private emergency authority army vip passenger hov taxi bus coach delivery truck trailer motorcycle evehicle custom1 custom2" speed="18.05" length="2.86" shape="8800.01,13319.90 8802.81,13320.61"/>
    </edge>
    <edge id=":26015892_2" function="internal">
        <lane id=":26015892_2_0" index="0" allow="private emergency authority army vip passenger hov taxi bus coach delivery truck trailer motorcycle evehicle custom1 custom2" speed="22.22" length="3.06" shape="8799.18,13322.99 8802.06,13323.75"/>
        <lane id=":26015892_2_1" index="1" allow="private emergency authority army vip passenger hov taxi bus coach delivery truck trailer motorcycle evehicle custom1 custom2" speed="22.22" length="3.06" shape="8798.36,13326.08 8801.32,13326.87"/>
        <lane id=":26015892_2_2" index="2" allow="private emergency authority army vip passenger hov taxi bus coach delivery truck trailer motorcycle evehicle custom1 custom2" speed="22.22" length="3.06" shape="8797.53,13329.18 8800.58,13329.98"/>
    </edge>
    <edge id=":26015895_0" function="internal">
        <lane id=":26015895_0_0" index="0" allow="private emergency authority army vip passenger hov taxi bus coach delivery truck trailer motorcycle evehicle custom1 custom2" speed="22.22" length="42.61" shape="8645.39,13312.83 8633.27,13310.99 8624.47,13309.31 8615.63,13308.12 8603.43,13307.74"/>
        <lane id=":26015895_0_1" index="1" allow="private emergency authority army vip passenger hov taxi bus coach delivery truck trailer motorcycle evehicle custom1 custom2" speed="22.22" length="42.61" shape="8645.78,13309.65 8633.63,13307.81 8624.76,13306.12 8615.87,13304.92 8603.64,13304.54"/>
        <lane id=":26015895_0_2" index="2" allow="private emergency authority army vip passenger hov taxi bus coach delivery truck trailer motorcycle evehicle custom1 custom2" speed="22.22" length="42.61" shape="8646.16,13306.47 8633.99,13304.63 8625.06,13302.93 8616.11,13301.72 8603.85,13301.34"/>
        <lane id=":26015895_0_3" index="3" allow="private emergency authority army vip passenger hov taxi bus coach delivery truck trailer motorcycle evehicle custom1 custom2" speed="22.22" length="42.61" shape="8646.55,13303.29 8634.34,13301.45 8625.36,13299.74 8616.34,13298.52 8604.06,13298.14"/>
    </edge>
    <edge id=":26122713_0" function="internal">
        <lane id=":26122713_0_0" index="0" allow="private emergency authority army vip passenger hov taxi bus coach delivery truck trailer motorcycle evehicle custom1 custom2" speed="16.67" length="9.43" shape="9079.60,13487.11 9079.86,13489.81 9079.99,13491.67 9080.28,13493.50 9081.02,13496.09"/>
        <lane id=":26122713_0_1" index="1" allow="private emergency authority army vip passenger hov taxi bus coach delivery truck trailer motorcycle evehicle custom1 custom2" speed="16.67" length="9.43" shape="9076.42,13487.50 9076.71,13490.38 9076.86,13492.37 9077.19,13494.32 9077.98,13497.08"/>
    </edge>
    <edge id=":26122713_2" function="internal">
        <lane id=":26122713_2_0" index="0" allow="private emergency authority army vip passenger hov taxi bus coach delivery truck trailer motorcycle evehicle custom1 custom2" speed="13.89" length="9.75" shape="9072.96,13488.43 9073.86,13491.19 9074.10,13493.19 9074.26,13495.23 9074.94,13498.07"/>
        <lane id=":26122713_2_1" index="1" allow="private emergency authority army vip passenger hov taxi bus coach delivery truck trailer motorcycle evehicle custom1 custom2" speed="13.89" length="9.75" shape="9070.01,13489.68 9070.89,13492.36 9071.10,13494.32 9071.24,13496.30 9071.89,13499.06"/>
    </edge>
    <edge id=":26122714_0" function="internal">
        <lane id=":26122714_0_0" index="0" allow="private emergency authority army vip passenger hov taxi bus coach delivery truck trailer motorcycle evehicle custom1 custom2" speed="19.45" length="3.07" shape="9067.12,13549.33 9066.22,13546.27"/>
        <lane id=":26122714_0_1" index="1" allow="private emergency authority army vip passenger hov taxi bus coach delivery truck trailer motorcycle evehicle custom1 custom2" speed="19.45" length="3.07" shape="9070.15,13548.32 9069.31,13545.47"/>
    </edge>
    <edge id=":26122714_2" function="internal">
        <lane id=":26122714_2_0" index="0" allow="private emergency authority army vip passenger hov taxi bus coach delivery truck trailer motorcycle evehicle custom1 custom2" speed="19.45" length="2.63" shape="9073.19,13547.30 9072.39,13544.68"/>
        <lane id=":26122714_2_1" index="1" allow="private emergency authority army vip passenger hov taxi bus coach delivery truck trailer motorcycle evehicle custom1 custom2" speed="19.45" length="2.63" shape="9076.22,13546.29 9075.49,13543.88"/>
    </edge>
    <edge id=":3092764693_0" function="internal">
        <lane id=":3092764693_0_0" index="0" allow="private emergency authority army vip passenger hov taxi bus coach delivery truck trailer motorcycle evehicle custom1 custom2" speed="16.66" length="14.79" shape="8936.36,13350.04 8940.34,13351.62 8943.04,13352.85 8945.81,13353.75 8949.99,13354.34"/>
        <lane id=":3092764693_0_1" index="1" allow="private emergency authority army vip passenger hov taxi bus coach delivery truck trailer motorcycle evehicle custom1 custom2" speed="16.66" length="14.79" shape="8935.31,13353.06 8939.51,13354.72 8942.37,13355.99 8945.30,13356.92 8949.73,13357.53"/>
    </edge>
    <edge id=":3092764693_2" function="internal">
        <lane id=":3092764693_2_0" index="0" allow="private emergency authority army vip passenger hov taxi bus coach delivery truck trailer motorcycle evehicle custom1 custom2" speed="22.22" length="16.10" shape="8934.42,13356.34 8938.91,13357.57 8941.90,13358.86 8944.90,13359.97 8949.47,13360.72"/>
        <lane id=":3092764693_2_1" index="1" allow="private emergency authority army vip passenger hov taxi bus coach delivery truck trailer motorcycle evehicle custom1 custom2" speed="22.22" length="16.10" shape="8933.80,13359.48 8938.40,13360.73 8941.46,13362.03 8944.54,13363.16 8949.21,13363.90"/>
        <lane id=":3092764693_2_2" index="2" allow="private emergency authority army vip passenger hov taxi bus coach delivery truck trailer motorcycle evehicle custom1 custom2" speed="22.22" length="16.10" shape="8933.18,13362.62 8937.89,13363.89 8941.02,13365.20 8944.17,13366.34 8948.95,13367.09"/>
    </edge>
    <edge id=":345566831-AddedOnRampNode_0" function="internal">
        <lane id=":345566831-AddedOnRampNode_0_0" index="0" allow="private emergency authority army vip passenger hov taxi bus coach delivery truck trailer motorcycle evehicle custom1 custom2" speed="22.22" length="8.00" shape="9041.75,13355.03 9049.56,13353.29"/>
        <lane id=":345566831-AddedOnRampNode_0_1" index="1" allow="private emergency authority army vip passenger hov taxi bus coach delivery truck trailer motorcycle evehicle custom1 custom2" speed="22.22" length="8.00" shape="9042.45,13358.15 9050.26,13356.42"/>
        <lane id=":345566831-AddedOnRampNode_0_2" index="2" allow="private emergency authority army vip passenger hov taxi bus coach delivery truck trailer motorcycle evehicle custom1 custom2" speed="22.22" length="8.00" shape="9043.14,13361.27 9050.95,13359.54"/>
        <lane id=":345566831-AddedOnRampNode_0_3" index="3" allow="private emergency authority army vip passenger hov taxi bus coach delivery truck trailer motorcycle evehicle custom1 custom2" speed="22.22" length="8.00" shape="9043.84,13364.40 9051.65,13362.66"/>
    </edge>
    <edge id=":35006697-AddedOffRampNode_0" function="internal">
        <lane id=":35006697-AddedOffRampNode_0_0" index="0" allow="private emergency authority army vip passenger hov taxi bus coach delivery truck trailer motorcycle evehicle custom1 custom2" speed="22.22" length="8.20" shape="9231.95,13250.44 9230.43,13252.44 9230.00,13254.28 9229.58,13256.12 9228.06,13258.13"/>
        <lane id=":35006697-AddedOffRampNode_0_1" index="1" allow="private emergency authority army vip passenger hov taxi bus coach delivery truck trailer motorcycle evehicle custom1 custom2" speed="22.22" length="8.20" shape="9231.95,13250.44 9225.94,13255.73"/>
        <lane id=":35006697-AddedOffRampNode_0_2" index="2" allow="private emergency authority army vip passenger hov taxi bus coach delivery truck trailer motorcycle evehicle custom1 custom2" speed="22.22" length="8.20" shape="9229.83,13248.04 9223.83,13253.32"/>
        <lane id=":35006697-AddedOffRampNode_0_3" index="3" allow="private emergency authority army vip passenger hov taxi bus coach delivery truck trailer motorcycle evehicle custom1 custom2" speed="22.22" length="8.20" shape="9227.72,13245.63 9221.71,13250.92"/>
    </edge>
    <edge id=":3522105988_0" function="internal">
        <lane id=":3522105988_0_0" index="0" allow="private emergency authority army vip passenger hov taxi bus coach delivery truck trailer motorcycle evehicle custom1 custom2" speed="22.22" length="3.27" shape="8724.64,13299.84 8726.22,13296.92"/>
        <lane id=":3522105988_0_1" index="1" allow="private emergency authority army vip passenger hov taxi bus coach delivery truck trailer motorcycle evehicle custom1 custom2" speed="22.22" length="3.27" shape="8723.92,13302.96 8725.40,13300.02"/>
        <lane id=":3522105988_0_2" index="2" allow="private emergency authority army vip passenger hov taxi bus coach delivery truck trailer motorcycle evehicle custom1 custom2" speed="22.22" length="3.27" shape="8723.20,13306.07 8724.58,13303.11"/>
        <lane id=":3522105988_0_3" index="3" allow="private emergency authority army vip passenger hov taxi bus coach delivery truck trailer motorcycle evehicle custom1 custom2" speed="22.22" length="3.27" shape="8722.48,13309.19 8723.75,13306.20"/>
        <lane id=":3522105988_0_4" index="4" allow="private emergency authority army vip passenger hov taxi bus coach delivery truck trailer motorcycle evehicle custom1 custom2" speed="22.22" length="3.27" shape="8721.76,13312.31 8722.93,13309.29"/>
    </edge>
    <edge id=":3713666407_0" function="internal">
        <lane id=":3713666407_0_0" index="0" allow="private emergency authority army vip passenger hov taxi bus coach delivery truck trailer motorcycle evehicle custom1 custom2" speed="22.22" length="0.30" shape="9184.99,13296.05 9184.77,13296.25"/>
        <lane id=":3713666407_0_1" index="1" allow="private emergency authority army vip passenger hov taxi bus coach delivery truck trailer motorcycle evehicle custom1 custom2" speed="22.22" length="0.30" shape="9182.88,13293.65 9182.65,13293.85"/>
        <lane id=":3713666407_0_2" index="2" allow="private emergency authority army vip passenger hov taxi bus coach delivery truck trailer motorcycle evehicle custom1 custom2" speed="22.22" length="0.30" shape="9180.77,13291.25 9180.54,13291.45"/>
        <lane id=":3713666407_0_3" index="3" allow="private emergency authority army vip passenger hov taxi bus coach delivery truck trailer motorcycle evehicle custom1 custom2" speed="22.22" length="0.30" shape="9178.65,13288.85 9178.43,13289.04"/>
    </edge>

    <edge id="345566829" from="26015892" to="3092764693" name="Via de Cintura Interna" priority="14" type="highway.motorway" spreadType="center" shape="8799.74,13326.45 8840.03,13337.04 8880.99,13347.71 8908.30,13354.48 8947.44,13362.16">
        <lane id="345566829_0" index="0" allow="private emergency authority army vip passenger hov taxi bus coach delivery truck trailer motorcycle evehicle custom1 custom2" speed="22.22" length="136.48" shape="8802.06,13323.75 8840.84,13333.94 8881.78,13344.61 8908.99,13351.36 8934.42,13356.34">
            <param key="origId" value="345566829"/>
        </lane>
        <lane id="345566829_1" index="1" allow="private emergency authority army vip passenger hov taxi bus coach delivery truck trailer motorcycle evehicle custom1 custom2" speed="22.22" length="136.48" shape="8801.32,13326.87 8840.03,13337.04 8880.99,13347.71 8908.30,13354.48 8933.80,13359.48">
            <param key="origId" value="345566829"/>
        </lane>
        <lane id="345566829_2" index="2" allow="private emergency authority army vip passenger hov taxi bus coach delivery truck trailer motorcycle evehicle custom1 custom2" speed="22.22" length="136.48" shape="8800.58,13329.98 8839.22,13340.14 8880.20,13350.81 8907.61,13357.60 8933.18,13362.62">
            <param key="origId" value="345566829"/>
        </lane>
        <param key="ref" value="IC 23"/>
    </edge>
    <edge id="345566831" from="345566831-AddedOnRampNode" to="26015884" name="Via de Cintura Interna" priority="14" type="highway.motorway" spreadType="center" shape="9046.70,13358.85 9051.54,13357.77 9069.31,13352.43">
        <lane id="345566831_0" index="0" allow="private emergency authority army vip passenger hov taxi bus coach delivery truck trailer motorcycle evehicle custom1 custom2" speed="22.22" length="16.11" shape="9049.56,13353.29 9050.33,13353.12 9064.67,13348.81">
            <param key="origId" value="345566831"/>
        </lane>
        <lane id="345566831_1" index="1" allow="private emergency authority army vip passenger hov taxi bus coach delivery truck trailer motorcycle evehicle custom1 custom2" speed="22.22" length="16.11" shape="9050.26,13356.42 9051.14,13356.22 9065.59,13351.88">
            <param key="origId" value="345566831"/>
        </lane>
        <lane id="345566831_2" index="2" allow="private emergency authority army vip passenger hov taxi bus coach delivery truck trailer motorcycle evehicle custom1 custom2" speed="22.22" length="16.11" shape="9050.95,13359.54 9051.94,13359.32 9066.51,13354.94">
            <param key="origId" value="345566831"/>
        </lane>
        <lane id="345566831_3" index="3" allow="private emergency authority army vip passenger hov taxi bus coach delivery truck trailer motorcycle evehicle custom1 custom2" speed="22.22" length="16.11" shape="9051.65,13362.66 9052.75,13362.42 9067.43,13358.01">
            <param key="origId" value="345566831"/>
        </lane>
        <param key="ref" value="IC 23"/>
    </edge>
    <edge id="345566831-AddedOnRampEdge" from="3092764693" to="345566831-AddedOnRampNode" name="Via de Cintura Interna" priority="14" type="highway.motorway" spreadType="center" shape="8947.57,13360.56 8990.34,13364.06 9011.23,13363.67 9033.03,13360.25 9046.35,13357.28">
        <lane id="345566831-AddedOnRampEdge_0" index="0" allow="private emergency authority army vip passenger hov taxi bus coach delivery truck trailer motorcycle evehicle custom1 custom2" speed="22.22" length="93.62" acceleration="1" shape="8949.99,13354.34 8990.54,13357.66 9010.67,13357.28 9031.84,13353.96 9041.05,13351.90">
            <param key="origId" value="345566831"/>
        </lane>
        <lane id="345566831-AddedOnRampEdge_1" index="1" allow="private emergency authority army vip passenger hov taxi bus coach delivery truck trailer motorcycle evehicle custom1 custom2" speed="22.22" length="93.62" acceleration="1" shape="8949.73,13357.53 8990.44,13360.86 9010.95,13360.47 9032.43,13357.10 9041.75,13355.03">
            <param key="origId" value="345566831"/>
        </lane>
        <lane id="345566831-AddedOnRampEdge_2" index="2" allow="private emergency authority army vip passenger hov taxi bus coach delivery truck trailer motorcycle evehicle custom1 custom2" speed="22.22" length="93.62" shape="8949.47,13360.72 8990.34,13364.06 9011.23,13363.67 9033.03,13360.25 9042.45,13358.15">
            <param key="origId" value="345566831"/>
        </lane>
        <lane id="345566831-AddedOnRampEdge_3" index="3" allow="private emergency authority army vip passenger hov taxi bus coach delivery truck trailer motorcycle evehicle custom1 custom2" speed="22.22" length="93.62" shape="8949.21,13363.90 8990.24,13367.26 9011.51,13366.87 9033.63,13363.40 9043.14,13361.27">
            <param key="origId" value="345566831"/>
        </lane>
        <lane id="345566831-AddedOnRampEdge_4" index="4" allow="private emergency authority army vip passenger hov taxi bus coach delivery truck trailer motorcycle evehicle custom1 custom2" speed="22.22" length="93.62" shape="8948.95,13367.09 8990.14,13370.46 9011.79,13370.06 9034.22,13366.54 9043.84,13364.40">
            <param key="origId" value="345566831"/>
        </lane>
        <param key="ref" value="IC 23"/>
    </edge>
    <edge id="345566834" from="112597525" to="26122713" name="Autoestrada de Entre-Douro-e-Minho" priority="9" type="highway.motorway_link" spreadType="center" shape="8890.37,13307.42 8894.52,13302.08 8898.39,13296.47 8906.70,13285.20 8911.33,13280.34 8916.59,13275.82 8922.59,13272.62 8929.10,13270.11 8935.76,13268.87 8942.59,13268.23 8950.00,13269.06 8957.15,13270.67 8964.02,13273.97 8970.71,13278.35 8975.64,13282.95 8980.23,13287.86 8984.52,13293.49 8988.51,13299.25 8996.20,13311.35 9003.55,13323.39 9012.52,13338.34 9023.37,13359.77 9029.20,13372.14 9034.69,13385.20 9039.45,13396.97 9048.33,13422.88 9061.61,13463.68 9069.44,13484.22 9080.98,13511.46">
        <lane id="345566834_0" index="0" allow="private emergency authority army vip passenger hov taxi bus coach delivery truck trailer motorcycle evehicle custom1 custom2" speed="11.11" length="334.41" shape="8889.20,13306.32 8893.23,13301.13 8897.09,13295.54 8905.47,13284.17 8910.23,13279.18 8915.68,13274.49 8921.92,13271.16 8928.66,13268.56 8935.54,13267.28 8942.60,13266.62 8950.27,13267.48 8957.68,13269.15 8964.81,13272.57 8971.70,13277.09 8976.77,13281.82 8981.45,13286.83 8985.81,13292.55 8989.84,13298.37 8997.56,13310.50 9004.92,13322.56 9013.92,13337.57 9024.81,13359.07 9030.66,13371.49 9036.17,13384.59 9040.95,13396.41 9049.85,13422.37 9063.12,13463.15 9070.92,13483.62 9072.96,13488.43">
            <param key="origId" value="345566834 29036513 367461726"/>
        </lane>
        <lane id="345566834_1" index="1" allow="private emergency authority army vip passenger hov taxi bus coach delivery truck trailer motorcycle evehicle custom1 custom2" speed="11.11" length="334.41" shape="8891.72,13308.29 8895.81,13303.03 8899.69,13297.40 8907.93,13286.23 8912.43,13281.50 8917.50,13277.15 8923.26,13274.08 8929.54,13271.66 8935.98,13270.46 8942.58,13269.84 8949.73,13270.64 8956.62,13272.19 8963.23,13275.37 8969.72,13279.61 8974.51,13284.08 8979.01,13288.89 8983.23,13294.43 8987.18,13300.13 8994.84,13312.20 9002.18,13324.22 9011.12,13339.11 9021.93,13360.47 9027.74,13372.79 9033.21,13385.81 9037.95,13397.53 9046.81,13423.39 9060.10,13464.21 9067.96,13484.82 9070.01,13489.68">
            <param key="origId" value="345566834 29036513 367461726"/>
        </lane>
    </edge>
    <edge id="35006697" from="35006697-AddedOnRampNode" to="35006697-AddedOffRampNode" name="Via de Cintura Interna" priority="14" type="highway.motorway" spreadType="center" shape="9433.83,13074.32 9375.66,13122.19 9305.25,13181.62 9226.83,13250.68">