<?xml version="1.0" encoding="UTF-8"?>

<!-- generated on 2023-04-11 14:46:46 by Eclipse SUMO netedit Version 1.15.0
<configuration xmlns:xsi="http://www.w3.org/2001/XMLSchema-instance" xsi:noNamespaceSchemaLocation="http://sumo.dlr.de/xsd/netconvertConfiguration.xsd">

    <input>
        <sumo-net-file value="C:\Users\Paulinho\Desktop\Master-Thesis\nodes\no_freixo.net.xml"/>
    </input>

    <output>
        <output-file value="C:\Users\Paulinho\Desktop\Master-Thesis\nodes\no_freixo.net.xml"/>
        <output.street-names value="true"/>
    </output>

    <processing>
        <geometry.min-radius.fix.railways value="false"/>
        <geometry.max-grade.fix value="false"/>
        <offset.disable-normalization value="true"/>
        <lefthand value="0"/>
    </processing>

    <junctions>
        <no-turnarounds value="true"/>
        <junctions.corner-detail value="5"/>
        <junctions.limit-turn-speed value="5.50"/>
        <rectangular-lane-cut value="0"/>
    </junctions>

    <pedestrian>
        <walkingareas value="0"/>
    </pedestrian>

    <netedit>
        <additional-files value="C:\Users\Paulinho\Desktop\Master-Thesis\nodes\no_freixo_poi.xml"/>
    </netedit>

</configuration>
-->

<net version="1.9" junctionCornerDetail="5" limitTurnSpeed="5.50" xmlns:xsi="http://www.w3.org/2001/XMLSchema-instance" xsi:noNamespaceSchemaLocation="http://sumo.dlr.de/xsd/net_file.xsd">

    <location netOffset="-524914.43,-4544541.91" convBoundary="10197.81,10426.21,10850.86,11246.69" origBoundary="-8.702913,41.051318,-8.236192,41.279522" projParameter="+proj=utm +zone=29 +ellps=WGS84 +datum=WGS84 +units=m +no_defs"/>

    <type id="highway.bridleway" priority="1" numLanes="1" speed="2.78" allow="pedestrian" oneway="1" width="2.00"/>
    <type id="highway.bus_guideway" priority="1" numLanes="1" speed="27.78" allow="bus" oneway="1"/>
    <type id="highway.cycleway" priority="1" numLanes="1" speed="5.56" allow="bicycle" oneway="0" width="1.00"/>
    <type id="highway.footway" priority="1" numLanes="1" speed="2.78" allow="pedestrian" oneway="1" width="2.00"/>
    <type id="highway.ford" priority="1" numLanes="1" speed="2.78" allow="army" oneway="0"/>
    <type id="highway.living_street" priority="2" numLanes="1" speed="2.78" disallow="tram rail_urban rail rail_electric rail_fast ship" oneway="0"/>
    <type id="highway.motorway" priority="14" numLanes="2" speed="39.44" allow="private emergency authority army vip passenger hov taxi bus coach delivery truck trailer motorcycle evehicle custom1 custom2" oneway="1"/>
    <type id="highway.motorway_link" priority="9" numLanes="1" speed="22.22" allow="private emergency authority army vip passenger hov taxi bus coach delivery truck trailer motorcycle evehicle custom1 custom2" oneway="1"/>
    <type id="highway.path" priority="1" numLanes="1" speed="5.56" allow="pedestrian bicycle" oneway="0" width="2.00"/>
    <type id="highway.pedestrian" priority="1" numLanes="1" speed="2.78" allow="pedestrian" oneway="1" width="2.00"/>
    <type id="highway.primary" priority="12" numLanes="2" speed="27.78" disallow="tram rail_urban rail rail_electric rail_fast ship" oneway="0"/>
    <type id="highway.primary_link" priority="7" numLanes="1" speed="22.22" disallow="tram rail_urban rail rail_electric rail_fast ship" oneway="0"/>
    <type id="highway.raceway" priority="15" numLanes="2" speed="83.33" allow="vip" oneway="0"/>
    <type id="highway.residential" priority="3" numLanes="1" speed="13.89" disallow="tram rail_urban rail rail_electric rail_fast ship" oneway="0"/>
    <type id="highway.secondary" priority="11" numLanes="1" speed="27.78" disallow="tram rail_urban rail rail_electric rail_fast ship" oneway="0"/>
    <type id="highway.secondary_link" priority="6" numLanes="1" speed="22.22" disallow="tram rail_urban rail rail_electric rail_fast ship" oneway="0"/>
    <type id="highway.service" priority="1" numLanes="1" speed="5.56" allow="pedestrian delivery bicycle" oneway="0"/>
    <type id="highway.stairs" priority="1" numLanes="1" speed="1.39" allow="pedestrian" oneway="1" width="2.00"/>
    <type id="highway.step" priority="1" numLanes="1" speed="1.39" allow="pedestrian" oneway="1" width="2.00"/>
    <type id="highway.steps" priority="1" numLanes="1" speed="1.39" allow="pedestrian" oneway="1" width="2.00"/>
    <type id="highway.tertiary" priority="10" numLanes="1" speed="22.22" disallow="tram rail_urban rail rail_electric rail_fast ship" oneway="0"/>
    <type id="highway.tertiary_link" priority="5" numLanes="1" speed="22.22" disallow="tram rail_urban rail rail_electric rail_fast ship" oneway="0"/>
    <type id="highway.track" priority="1" numLanes="1" speed="5.56" allow="pedestrian motorcycle moped bicycle" oneway="0"/>
    <type id="highway.trunk" priority="13" numLanes="2" speed="27.78" disallow="pedestrian bicycle tram rail_urban rail rail_electric rail_fast ship" oneway="0"/>
    <type id="highway.trunk_link" priority="8" numLanes="1" speed="22.22" disallow="pedestrian bicycle tram rail_urban rail rail_electric rail_fast ship" oneway="0"/>
    <type id="highway.unclassified" priority="4" numLanes="1" speed="13.89" disallow="tram rail_urban rail rail_electric rail_fast ship" oneway="0"/>
    <type id="highway.unsurfaced" priority="1" numLanes="1" speed="8.33" disallow="tram rail_urban rail rail_electric rail_fast ship" oneway="0"/>
    <type id="railway.highspeed" priority="21" numLanes="1" speed="69.44" allow="rail_fast" oneway="1"/>
    <type id="railway.light_rail" priority="19" numLanes="1" speed="27.78" allow="rail_urban" oneway="1"/>
    <type id="railway.preserved" priority="16" numLanes="1" speed="27.78" allow="rail" oneway="1"/>
    <type id="railway.rail" priority="20" numLanes="1" speed="44.44" allow="rail" oneway="1"/>
    <type id="railway.subway" priority="18" numLanes="1" speed="27.78" allow="rail_urban" oneway="1"/>
    <type id="railway.tram" priority="17" numLanes="1" speed="13.89" allow="tram" oneway="1"/>

    <edge id=":114310686_0" function="internal">
        <lane id=":114310686_0_0" index="0" allow="private emergency authority army vip passenger hov taxi bus coach delivery truck trailer motorcycle evehicle custom1 custom2" speed="30.83" length="3.70" shape="10747.54,11188.64 10744.66,11186.31"/>
    </edge>
    <edge id=":114310686_1" function="internal">
        <lane id=":114310686_1_0" index="0" allow="private emergency authority army vip passenger hov taxi bus coach delivery truck trailer motorcycle evehicle custom1 custom2" speed="39.44" length="3.37" shape="10749.48,11186.09 10748.64,11185.45 10748.08,11184.99 10747.55,11184.51 10746.78,11183.78"/>
        <lane id=":114310686_1_1" index="1" allow="private emergency authority army vip passenger hov taxi bus coach delivery truck trailer motorcycle evehicle custom1 custom2" speed="39.44" length="3.37" shape="10751.42,11183.55 10750.67,11182.97 10750.17,11182.56 10749.69,11182.13 10749.01,11181.48"/>
    </edge>
    <edge id=":114310696_0" function="internal">
        <lane id=":114310696_0_0" index="0" allow="private emergency authority army vip passenger hov taxi bus coach delivery truck trailer motorcycle evehicle custom1 custom2" speed="30.83" length="3.20" shape="10443.47,10947.33 10442.61,10946.91 10442.03,10946.64 10441.43,10946.39 10440.53,10946.06"/>
    </edge>
    <edge id=":114310696_1" function="internal">
        <lane id=":114310696_1_0" index="0" allow="private emergency authority army vip passenger hov taxi bus coach delivery truck trailer motorcycle evehicle custom1 custom2" speed="39.44" length="3.00" shape="10444.51,10944.00 10441.61,10943.05"/>
        <lane id=":114310696_1_1" index="1" allow="private emergency authority army vip passenger hov taxi bus coach delivery truck trailer motorcycle evehicle custom1 custom2" speed="39.44" length="3.00" shape="10445.47,10940.95 10442.68,10940.03"/>
    </edge>
    <edge id=":114310699_0" function="internal">
        <lane id=":114310699_0_0" index="0" allow="private emergency authority army vip passenger hov taxi bus coach delivery truck trailer motorcycle evehicle custom1 custom2" speed="26.66" length="5.44" shape="10255.50,10867.65 10254.14,10866.78 10253.21,10866.16 10252.38,10865.44 10251.28,10864.27"/>
    </edge>
    <edge id=":114310699_1" function="internal">
        <lane id=":114310699_1_0" index="0" allow="private emergency authority army vip passenger hov taxi bus coach delivery truck trailer motorcycle evehicle custom1 custom2" speed="22.89" length="3.98" shape="10257.10,10864.97 10255.96,10864.29 10255.22,10863.76 10254.56,10863.13 10253.67,10862.14"/>
        <lane id=":114310699_1_1" index="1" allow="private emergency authority army vip passenger hov taxi bus coach delivery truck trailer motorcycle evehicle custom1 custom2" speed="20.22" length="3.98" shape="10258.73,10862.22 10257.85,10861.69 10257.27,10861.28 10256.76,10860.79 10256.07,10860.02"/>
    </edge>
    <edge id=":114310705_0" function="internal">
        <lane id=":114310705_0_0" index="0" allow="private emergency authority army vip passenger hov taxi bus coach delivery truck trailer motorcycle evehicle custom1 custom2" speed="30.83" length="5.07" shape="10197.83,10733.09 10197.85,10731.59 10197.97,10730.57 10198.21,10729.56 10198.59,10728.11"/>
    </edge>
    <edge id=":114310705_1" function="internal">
        <lane id=":114310705_1_0" index="0" allow="private emergency authority army vip passenger hov taxi bus coach delivery truck trailer motorcycle evehicle custom1 custom2" speed="39.44" length="3.83" shape="10201.03,10733.05 10201.03,10731.79 10201.08,10730.93 10201.23,10730.08 10201.53,10728.86"/>
        <lane id=":114310705_1_1" index="1" allow="private emergency authority army vip passenger hov taxi bus coach delivery truck trailer motorcycle evehicle custom1 custom2" speed="39.44" length="3.83" shape="10204.23,10733.01 10204.23,10732.00 10204.27,10731.31 10204.39,10730.63 10204.64,10729.65"/>
    </edge>
    <edge id=":114310714_0" function="internal">
        <lane id=":114310714_0_0" index="0" disallow="tram rail_urban rail rail_electric rail_fast ship" speed="12.53" length="14.54" shape="10379.24,10528.41 10376.91,10525.21 10375.38,10521.69 10374.63,10517.86 10374.67,10513.71"/>
        <lane id=":114310714_0_1" index="1" disallow="tram rail_urban rail rail_electric rail_fast ship" speed="12.13" length="14.54" shape="10382.79,10527.56 10380.35,10524.35 10378.72,10521.02 10377.89,10517.58 10377.86,10514.04"/>
        <lane id=":114310714_0_2" index="2" disallow="tram rail_urban rail rail_electric rail_fast ship" speed="11.36" length="14.54" shape="10385.73,10526.05 10383.45,10523.11 10381.92,10520.18 10381.11,10517.27 10381.04,10514.36"/>
    </edge>
    <edge id=":114310714_3" function="internal">
        <lane id=":114310714_3_0" index="0" allow="private emergency authority army vip passenger hov taxi bus coach delivery truck trailer motorcycle evehicle custom1 custom2" speed="17.15" length="14.53" shape="10369.20,10526.17 10371.65,10522.85 10373.18,10520.42 10374.09,10517.74 10374.67,10513.71"/>
        <lane id=":114310714_3_1" index="1" allow="private emergency authority army vip passenger hov taxi bus coach delivery truck trailer motorcycle evehicle custom1 custom2" speed="17.90" length="14.53" shape="10372.04,10527.71 10374.68,10524.07 10376.30,10521.39 10377.24,10518.45 10377.86,10514.04"/>
    </edge>
    <edge id=":114311905_0" function="internal">
        <lane id=":114311905_0_0" index="0" allow="private emergency authority army vip passenger hov taxi bus coach delivery truck trailer motorcycle evehicle custom1 custom2" speed="22.22" length="7.82" shape="10434.71,10999.00 10434.86,11001.26 10435.38,11002.76 10435.96,11004.27 10436.31,11006.53"/>
        <lane id=":114311905_0_1" index="1" allow="private emergency authority army vip passenger hov taxi bus coach delivery truck trailer motorcycle evehicle custom1 custom2" speed="22.22" length="7.82" shape="10434.71,10999.00 10434.36,11001.30 10433.78,11002.84 10433.26,11004.37 10433.11,11006.67"/>
    </edge>
    <edge id=":114311906_0" function="internal">
        <lane id=":114311906_0_0" index="0" allow="private emergency authority army vip passenger hov taxi bus coach delivery truck trailer motorcycle evehicle custom1 custom2" speed="22.22" length="0.10" shape="10436.81,10968.50 10436.81,10968.50"/>
    </edge>
    <edge id=":114312390_0" function="internal">
        <lane id=":114312390_0_0" index="0" allow="private emergency authority army vip passenger hov taxi bus coach delivery truck trailer motorcycle evehicle custom1 custom2" speed="22.22" length="13.31" shape="10494.98,11087.46 10499.01,11088.41 10502.07,11088.60 10504.89,11088.46 10508.17,11088.41"/>
    </edge>
    <edge id=":114312390_1" function="internal">
        <lane id=":114312390_1_0" index="0" allow="private emergency authority army vip passenger hov taxi bus coach delivery truck trailer motorcycle evehicle custom1 custom2" speed="22.22" length="13.85" shape="10494.04,11090.52 10498.27,11091.45 10501.54,11091.57 10504.48,11091.49 10507.77,11091.82"/>
    </edge>
    <edge id=":114314002_0" function="internal">
        <lane id=":114314002_0_0" index="0" allow="private emergency authority army vip passenger hov taxi bus coach delivery truck trailer motorcycle evehicle custom1 custom2" speed="30.83" length="3.61" shape="10773.11,11179.36 10776.02,11181.50"/>
    </edge>
    <edge id=":114314002_1" function="internal">
        <lane id=":114314002_1_0" index="0" allow="private emergency authority army vip passenger hov taxi bus coach delivery truck trailer motorcycle evehicle custom1 custom2" speed="39.44" length="3.32" shape="10771.22,11182.05 10772.09,11182.60 10772.68,11182.99 10773.25,11183.40 10774.07,11184.03"/>
        <lane id=":114314002_1_1" index="1" allow="private emergency authority army vip passenger hov taxi bus coach delivery truck trailer motorcycle evehicle custom1 custom2" speed="39.44" length="3.32" shape="10769.52,11184.76 10770.31,11185.26 10770.85,11185.61 10771.37,11185.99 10772.11,11186.56"/>
    </edge>
    <edge id=":114315556_0" function="internal">
        <lane id=":114315556_0_0" index="0" allow="private emergency authority army vip passenger hov taxi bus coach delivery truck trailer motorcycle evehicle custom1 custom2" speed="30.83" length="2.31" shape="10361.78,10554.13 10361.20,10554.48 10360.80,10554.73 10360.42,10555.00 10359.86,10555.41"/>
    </edge>
    <edge id=":114315556_1" function="internal">
        <lane id=":114315556_1_0" index="0" allow="private emergency authority army vip passenger hov taxi bus coach delivery truck trailer motorcycle evehicle custom1 custom2" speed="39.44" length="2.75" shape="10360.13,10551.39 10357.96,10552.83"/>
        <lane id=":114315556_1_1" index="1" allow="private emergency authority army vip passenger hov taxi bus coach delivery truck trailer motorcycle evehicle custom1 custom2" speed="39.44" length="2.75" shape="10358.47,10548.65 10356.06,10550.26"/>
    </edge>
    <edge id=":114315563_0" function="internal">
        <lane id=":114315563_0_0" index="0" allow="private emergency authority army vip passenger hov taxi bus coach delivery truck trailer motorcycle evehicle custom1 custom2" speed="30.83" length="0.50" shape="10230.30,10685.23 10230.24,10685.36 10230.21,10685.46 10230.18,10685.56 10230.15,10685.70"/>
    </edge>
    <edge id=":114315563_1" function="internal">
        <lane id=":114315563_1_0" index="0" allow="private emergency authority army vip passenger hov taxi bus coach delivery truck trailer motorcycle evehicle custom1 custom2" speed="39.44" length="1.61" shape="10227.41,10683.86 10227.27,10684.19 10227.19,10684.43 10227.13,10684.68 10227.03,10685.03"/>
        <lane id=":114315563_1_1" index="1" allow="private emergency authority army vip passenger hov taxi bus coach delivery truck trailer motorcycle evehicle custom1 custom2" speed="39.44" length="1.61" shape="10224.52,10682.49 10224.28,10683.03 10224.16,10683.41 10224.05,10683.79 10223.89,10684.36"/>
    </edge>
    <edge id=":114315578_0" function="internal">
        <lane id=":114315578_0_0" index="0" allow="private emergency authority army vip passenger hov taxi bus coach delivery truck trailer motorcycle evehicle custom1 custom2" speed="26.66" length="2.54" shape="10342.67,10891.56 10343.36,10891.86 10343.84,10892.05 10344.33,10892.22 10345.05,10892.46"/>
    </edge>
    <edge id=":114315578_1" function="internal">
        <lane id=":114315578_1_0" index="0" allow="private emergency authority army vip passenger hov taxi bus coach delivery truck trailer motorcycle evehicle custom1 custom2" speed="39.44" length="2.84" shape="10341.47,10894.56 10344.05,10895.50"/>
        <lane id=":114315578_1_1" index="1" allow="private emergency authority army vip passenger hov taxi bus coach delivery truck trailer motorcycle evehicle custom1 custom2" speed="39.44" length="2.84" shape="10340.29,10897.53 10343.05,10898.54"/>
    </edge>
    <edge id=":114320429_0" function="internal">
        <lane id=":114320429_0_0" index="0" disallow="tram rail_urban rail rail_electric rail_fast ship" speed="27.78" length="0.99" shape="10402.20,10539.78 10401.72,10539.83 10401.38,10539.85 10401.04,10539.83 10400.55,10539.78"/>
        <lane id=":114320429_0_1" index="1" disallow="tram rail_urban rail rail_electric rail_fast ship" speed="27.78" length="0.99" shape="10401.87,10536.60 10401.57,10536.63 10401.37,10536.64 10401.17,10536.63 10400.87,10536.60"/>
        <lane id=":114320429_0_2" index="2" disallow="tram rail_urban rail rail_electric rail_fast ship" speed="27.78" length="0.99" shape="10401.53,10533.42 10401.43,10533.43 10401.36,10533.43 10401.29,10533.43 10401.20,10533.42"/>
    </edge>
    <edge id=":114320432_0" function="internal">
        <lane id=":114320432_0_0" index="0" allow="private emergency authority army vip passenger hov taxi bus coach delivery truck trailer motorcycle evehicle custom1 custom2" speed="14.90" length="13.88" shape="10395.65,10539.29 10391.58,10538.95 10388.72,10539.11 10386.02,10540.03 10382.42,10541.93"/>
        <lane id=":114320432_0_1" index="1" allow="private emergency authority army vip passenger hov taxi bus coach delivery truck trailer motorcycle evehicle custom1 custom2" speed="15.28" length="14.61" shape="10395.65,10539.29 10391.36,10538.42 10388.28,10537.45 10385.37,10537.27 10381.56,10538.74"/>
        <lane id=":114320432_0_2" index="2" allow="private emergency authority army vip passenger hov taxi bus coach delivery truck trailer motorcycle evehicle custom1 custom2" speed="16.09" length="16.22" shape="10395.65,10539.29 10391.03,10537.85 10387.83,10535.71 10384.80,10534.43 10380.71,10535.54"/>
    </edge>
    <edge id=":114320432_3" function="internal">
        <lane id=":114320432_3_0" index="0" disallow="tram rail_urban rail rail_electric rail_fast ship" speed="14.11" length="15.74" shape="10395.65,10539.29 10390.82,10538.51 10387.65,10537.15 10384.98,10534.80 10381.64,10531.08"/>
        <lane id=":114320432_3_1" index="1" disallow="tram rail_urban rail rail_electric rail_fast ship" speed="13.75" length="15.74" shape="10396.70,10536.18 10392.12,10535.43 10389.13,10534.10 10386.61,10531.85 10383.45,10528.31"/>
        <lane id=":114320432_3_2" index="2" disallow="tram rail_urban rail rail_electric rail_fast ship" speed="13.00" length="15.74" shape="10397.75,10533.07 10393.65,10532.42 10390.96,10531.29 10388.69,10529.33 10385.86,10526.20"/>
    </edge>
    <edge id=":114320445_0" function="internal">
        <lane id=":114320445_0_0" index="0" disallow="tram rail_urban rail rail_electric rail_fast ship" speed="15.22" length="1.57" shape="10383.96,10493.32 10384.49,10492.76 10384.89,10492.40 10385.33,10492.11 10386.01,10491.74"/>
        <lane id=":114320445_0_1" index="1" disallow="tram rail_urban rail rail_electric rail_fast ship" speed="11.86" length="1.57" shape="10386.29,10495.50 10386.61,10495.17 10386.85,10494.96 10387.12,10494.78 10387.52,10494.56"/>
        <lane id=":114320445_0_2" index="2" disallow="tram rail_urban rail rail_electric rail_fast ship" speed="27.78" length="1.57" shape="10388.63,10497.69 10388.73,10497.58 10388.81,10497.51 10388.90,10497.45 10389.04,10497.38"/>
    </edge>
    <edge id=":114320452_0" function="internal">
        <lane id=":114320452_0_0" index="0" disallow="tram rail_urban rail rail_electric rail_fast ship" speed="15.64" length="1.55" shape="10399.65,10487.06 10400.40,10486.93 10400.92,10486.89 10401.45,10486.93 10402.20,10487.03"/>
        <lane id=":114320452_0_1" index="1" disallow="tram rail_urban rail rail_electric rail_fast ship" speed="12.19" length="1.55" shape="10400.18,10490.21 10400.64,10490.14 10400.95,10490.11 10401.26,10490.13 10401.72,10490.20"/>
        <lane id=":114320452_0_2" index="2" disallow="tram rail_urban rail rail_electric rail_fast ship" speed="27.78" length="1.55" shape="10400.72,10493.36 10400.87,10493.34 10400.98,10493.33 10401.08,10493.34 10401.23,10493.36"/>
    </edge>
    <edge id=":114320458_0" function="internal">
        <lane id=":114320458_0_0" index="0" disallow="tram rail_urban rail rail_electric rail_fast ship" speed="17.46" length="1.48" shape="10427.55,10512.77 10427.64,10513.49 10427.67,10513.99 10427.62,10514.50 10427.51,10515.22"/>
        <lane id=":114320458_0_1" index="1" disallow="tram rail_urban rail rail_electric rail_fast ship" speed="13.59" length="1.48" shape="10424.38,10513.20 10424.43,10513.64 10424.45,10513.94 10424.42,10514.24 10424.35,10514.67"/>
        <lane id=":114320458_0_2" index="2" disallow="tram rail_urban rail rail_electric rail_fast ship" speed="27.78" length="1.48" shape="10421.21,10513.64 10421.23,10513.78 10421.23,10513.88 10421.22,10513.98 10421.20,10514.13"/>
    </edge>
    <edge id=":12543115#3-AddedOnRampNode_0" function="internal">
        <lane id=":12543115#3-AddedOnRampNode_0_0" index="0" allow="private emergency authority army vip passenger hov taxi bus coach delivery truck trailer motorcycle evehicle custom1 custom2" speed="39.44" length="8.00" shape="10352.36,10911.35 10344.88,10908.54"/>
        <lane id=":12543115#3-AddedOnRampNode_0_1" index="1" allow="private emergency authority army vip passenger hov taxi bus coach delivery truck trailer motorcycle evehicle custom1 custom2" speed="39.44" length="8.00" shape="10353.43,10908.33 10345.95,10905.52"/>
    </edge>
    <edge id=":12543115#4-AddedOnRampNode_0" function="internal">
        <lane id=":12543115#4-AddedOnRampNode_0_0" index="0" allow="private emergency authority army vip passenger hov taxi bus coach delivery truck trailer motorcycle evehicle custom1 custom2" speed="39.44" length="0.30" shape="10202.55,10778.56 10202.46,10778.28"/>
        <lane id=":12543115#4-AddedOnRampNode_0_1" index="1" allow="private emergency authority army vip passenger hov taxi bus coach delivery truck trailer motorcycle evehicle custom1 custom2" speed="39.44" length="0.30" shape="10205.61,10777.63 10205.53,10777.35"/>
        <lane id=":12543115#4-AddedOnRampNode_0_2" index="2" allow="private emergency authority army vip passenger hov taxi bus coach delivery truck trailer motorcycle evehicle custom1 custom2" speed="39.44" length="0.30" shape="10208.68,10776.71 10208.59,10776.42"/>
    </edge>
    <edge id=":25507581_0" function="internal">
        <lane id=":25507581_0_0" index="0" allow="private emergency authority army vip passenger hov taxi bus coach delivery truck trailer motorcycle evehicle custom1 custom2" speed="22.22" length="3.29" shape="10319.40,11186.20 10317.13,11188.59"/>
    </edge>
    <edge id=":25507581_1" function="internal">
        <lane id=":25507581_1_0" index="0" allow="private emergency authority army vip passenger hov taxi bus coach delivery truck trailer motorcycle evehicle custom1 custom2" speed="22.22" length="2.89" shape="10316.84,11184.07 10314.77,11186.42"/>
        <lane id=":25507581_1_1" index="1" allow="private emergency authority army vip passenger hov taxi bus coach delivery truck trailer motorcycle evehicle custom1 custom2" speed="22.22" length="2.89" shape="10314.38,11182.03 10312.42,11184.25"/>
        <lane id=":25507581_1_2" index="2" allow="private emergency authority army vip passenger hov taxi bus coach delivery truck trailer motorcycle evehicle custom1 custom2" speed="22.22" length="2.89" shape="10311.92,11179.98 10310.07,11182.08"/>
        <lane id=":25507581_1_3" index="3" allow="private emergency authority army vip passenger hov taxi bus coach delivery truck trailer motorcycle evehicle custom1 custom2" speed="22.22" length="2.89" shape="10309.46,11177.93 10307.71,11179.92"/>
    </edge>
    <edge id=":25507582_0" function="internal">
        <lane id=":25507582_0_0" index="0" allow="private emergency authority army vip passenger hov taxi bus coach delivery truck trailer motorcycle evehicle custom1 custom2" speed="18.05" length="6.08" shape="10344.05,11102.76 10345.15,11101.34 10345.99,11100.43 10346.92,11099.61 10348.29,11098.43"/>
    </edge>
    <edge id=":25507582_1" function="internal">
        <lane id=":25507582_1_0" index="0" allow="private emergency authority army vip passenger hov taxi bus coach delivery truck trailer motorcycle evehicle custom1 custom2" speed="22.22" length="4.38" shape="10346.64,11104.66 10347.59,11103.37 10348.30,11102.52 10349.07,11101.74 10350.24,11100.63"/>
        <lane id=":25507582_1_1" index="1" allow="private emergency authority army vip passenger hov taxi bus coach delivery truck trailer motorcycle evehicle custom1 custom2" speed="22.22" length="4.38" shape="10349.22,11106.55 10350.05,11105.42 10350.66,11104.68 10351.34,11104.00 10352.35,11103.04"/>
        <lane id=":25507582_1_2" index="2" allow="private emergency authority army vip passenger hov taxi bus coach delivery truck trailer motorcycle evehicle custom1 custom2" speed="22.22" length="4.38" shape="10351.80,11108.44 10352.51,11107.48 10353.03,11106.85 10353.60,11106.26 10354.47,11105.44"/>
        <lane id=":25507582_1_3" index="3" allow="private emergency authority army vip passenger hov taxi bus coach delivery truck trailer motorcycle evehicle custom1 custom2" speed="22.22" length="4.38" shape="10354.38,11110.33 10354.97,11109.53 10355.40,11109.01 10355.87,11108.52 10356.59,11107.84"/>
    </edge>
    <edge id=":25507585_0" function="internal">
        <lane id=":25507585_0_0" index="0" allow="private emergency authority army vip passenger hov taxi bus coach delivery truck trailer motorcycle evehicle custom1 custom2" speed="22.22" length="0.55" shape="10407.84,11057.79 10407.43,11058.65"/>
        <lane id=":25507585_0_1" index="1" allow="private emergency authority army vip passenger hov taxi bus coach delivery truck trailer motorcycle evehicle custom1 custom2" speed="22.22" length="0.55" shape="10404.90,11056.53 10404.60,11057.14"/>
        <lane id=":25507585_0_2" index="2" allow="private emergency authority army vip passenger hov taxi bus coach delivery truck trailer motorcycle evehicle custom1 custom2" speed="22.22" length="0.55" shape="10401.96,11055.27 10401.78,11055.64"/>
        <lane id=":25507585_0_3" index="3" allow="private emergency authority army vip passenger hov taxi bus coach delivery truck trailer motorcycle evehicle custom1 custom2" speed="22.22" length="0.55" shape="10399.01,11054.01 10398.96,11054.13"/>
    </edge>
    <edge id=":25507591_0" function="internal">
        <lane id=":25507591_0_0" index="0" allow="private emergency authority army vip passenger hov taxi bus coach delivery truck trailer motorcycle evehicle custom1 custom2" speed="22.22" length="3.28" shape="10387.18,10765.39 10388.80,10768.23"/>
    </edge>
    <edge id=":25507591_1" function="internal">
        <lane id=":25507591_1_0" index="0" allow="private emergency authority army vip passenger hov taxi bus coach delivery truck trailer motorcycle evehicle custom1 custom2" speed="22.22" length="2.41" shape="10384.46,10767.24 10384.95,10767.96 10385.27,10768.46 10385.57,10768.97 10385.98,10769.74"/>
        <lane id=":25507591_1_1" index="1" allow="private emergency authority army vip passenger hov taxi bus coach delivery truck trailer motorcycle evehicle custom1 custom2" speed="22.22" length="2.41" shape="10381.82,10769.04 10382.25,10769.67 10382.53,10770.12 10382.79,10770.57 10383.16,10771.25"/>
        <lane id=":25507591_1_2" index="2" allow="private emergency authority army vip passenger hov taxi bus coach delivery truck trailer motorcycle evehicle custom1 custom2" speed="22.22" length="2.41" shape="10379.18,10770.84 10379.55,10771.39 10379.79,10771.78 10380.02,10772.17 10380.33,10772.75"/>
        <lane id=":25507591_1_3" index="3" allow="private emergency authority army vip passenger hov taxi bus coach delivery truck trailer motorcycle evehicle custom1 custom2" speed="22.22" length="2.41" shape="10376.53,10772.65 10376.85,10773.11 10377.05,10773.43 10377.25,10773.77 10377.51,10774.26"/>
    </edge>
    <edge id=":25507594_0" function="internal">
        <lane id=":25507594_0_0" index="0" allow="private emergency authority army vip passenger hov taxi bus coach delivery truck trailer motorcycle evehicle custom1 custom2" speed="22.22" length="2.42" shape="10274.16,10649.22 10273.72,10648.55 10273.43,10648.08 10273.15,10647.60 10272.77,10646.89"/>
        <lane id=":25507594_0_1" index="1" allow="private emergency authority army vip passenger hov taxi bus coach delivery truck trailer motorcycle evehicle custom1 custom2" speed="22.22" length="2.42" shape="10276.83,10647.46 10276.44,10646.86 10276.18,10646.45 10275.94,10646.02 10275.60,10645.39"/>
        <lane id=":25507594_0_2" index="2" allow="private emergency authority army vip passenger hov taxi bus coach delivery truck trailer motorcycle evehicle custom1 custom2" speed="22.22" length="2.42" shape="10279.50,10645.70 10279.16,10645.18 10278.93,10644.81 10278.72,10644.44 10278.42,10643.88"/>
    </edge>
    <edge id=":25507594_3" function="internal">