<?xml version="1.0" encoding="UTF-8"?>

<!-- generated on 2023-07-06 17:17:32 by Eclipse SUMO netedit Version 1.15.0
<configuration xmlns:xsi="http://www.w3.org/2001/XMLSchema-instance" xsi:noNamespaceSchemaLocation="http://sumo.dlr.de/xsd/netconvertConfiguration.xsd">

    <input>
        <sumo-net-file value="C:\Users\Paulinho\Desktop\Master-Thesis\nodes\no_gervide.net.xml"/>
    </input>

    <output>
        <output-file value="C:\Users\Paulinho\Desktop\Master-Thesis\nodes\no_gervide.net.xml"/>
        <output.street-names value="true"/>
    </output>

    <processing>
        <geometry.min-radius.fix.railways value="false"/>
        <geometry.max-grade.fix value="false"/>
        <offset.disable-normalization value="true"/>
        <lefthand value="0"/>
    </processing>

    <junctions>
        <no-turnarounds value="true"/>
        <junctions.corner-detail value="5"/>
        <junctions.limit-turn-speed value="5.50"/>
        <rectangular-lane-cut value="0"/>
    </junctions>

    <pedestrian>
        <walkingareas value="0"/>
    </pedestrian>

    <netedit>
        <additional-files value="C:\Users\Paulinho\Desktop\Master-Thesis\nodes\no_gervide_poi.xml"/>
    </netedit>

</configuration>
-->

<net version="1.9" junctionCornerDetail="5" limitTurnSpeed="5.50" xmlns:xsi="http://www.w3.org/2001/XMLSchema-instance" xsi:noNamespaceSchemaLocation="http://sumo.dlr.de/xsd/net_file.xsd">

    <location netOffset="-524914.43,-4544541.91" convBoundary="8626.35,8148.68,10096.61,9290.20" origBoundary="-8.702913,41.051318,-8.236192,41.279522" projParameter="+proj=utm +zone=29 +ellps=WGS84 +datum=WGS84 +units=m +no_defs"/>

    <type id="highway.bridleway" priority="1" numLanes="1" speed="2.78" allow="pedestrian" oneway="1" width="2.00"/>
    <type id="highway.bus_guideway" priority="1" numLanes="1" speed="27.78" allow="bus" oneway="1"/>
    <type id="highway.cycleway" priority="1" numLanes="1" speed="5.56" allow="bicycle" oneway="0" width="1.00"/>
    <type id="highway.footway" priority="1" numLanes="1" speed="2.78" allow="pedestrian" oneway="1" width="2.00"/>
    <type id="highway.ford" priority="1" numLanes="1" speed="2.78" allow="army" oneway="0"/>
    <type id="highway.living_street" priority="2" numLanes="1" speed="2.78" disallow="tram rail_urban rail rail_electric rail_fast ship" oneway="0"/>
    <type id="highway.motorway" priority="14" numLanes="2" speed="39.44" allow="private emergency authority army vip passenger hov taxi bus coach delivery truck trailer motorcycle evehicle custom1 custom2" oneway="1"/>
    <type id="highway.motorway_link" priority="9" numLanes="1" speed="22.22" allow="private emergency authority army vip passenger hov taxi bus coach delivery truck trailer motorcycle evehicle custom1 custom2" oneway="1"/>
    <type id="highway.path" priority="1" numLanes="1" speed="5.56" allow="pedestrian bicycle" oneway="0" width="2.00"/>
    <type id="highway.pedestrian" priority="1" numLanes="1" speed="2.78" allow="pedestrian" oneway="1" width="2.00"/>
    <type id="highway.primary" priority="12" numLanes="2" speed="27.78" disallow="tram rail_urban rail rail_electric rail_fast ship" oneway="0"/>
    <type id="highway.primary_link" priority="7" numLanes="1" speed="22.22" disallow="tram rail_urban rail rail_electric rail_fast ship" oneway="0"/>
    <type id="highway.raceway" priority="15" numLanes="2" speed="83.33" allow="vip" oneway="0"/>
    <type id="highway.residential" priority="3" numLanes="1" speed="13.89" disallow="tram rail_urban rail rail_electric rail_fast ship" oneway="0"/>
    <type id="highway.secondary" priority="11" numLanes="1" speed="27.78" disallow="tram rail_urban rail rail_electric rail_fast ship" oneway="0"/>
    <type id="highway.secondary_link" priority="6" numLanes="1" speed="22.22" disallow="tram rail_urban rail rail_electric rail_fast ship" oneway="0"/>
    <type id="highway.service" priority="1" numLanes="1" speed="5.56" allow="pedestrian delivery bicycle" oneway="0"/>
    <type id="highway.stairs" priority="1" numLanes="1" speed="1.39" allow="pedestrian" oneway="1" width="2.00"/>
    <type id="highway.step" priority="1" numLanes="1" speed="1.39" allow="pedestrian" oneway="1" width="2.00"/>
    <type id="highway.steps" priority="1" numLanes="1" speed="1.39" allow="pedestrian" oneway="1" width="2.00"/>
    <type id="highway.tertiary" priority="10" numLanes="1" speed="22.22" disallow="tram rail_urban rail rail_electric rail_fast ship" oneway="0"/>
    <type id="highway.tertiary_link" priority="5" numLanes="1" speed="22.22" disallow="tram rail_urban rail rail_electric rail_fast ship" oneway="0"/>
    <type id="highway.track" priority="1" numLanes="1" speed="5.56" allow="pedestrian motorcycle moped bicycle" oneway="0"/>
    <type id="highway.trunk" priority="13" numLanes="2" speed="27.78" disallow="pedestrian bicycle tram rail_urban rail rail_electric rail_fast ship" oneway="0"/>
    <type id="highway.trunk_link" priority="8" numLanes="1" speed="22.22" disallow="pedestrian bicycle tram rail_urban rail rail_electric rail_fast ship" oneway="0"/>
    <type id="highway.unclassified" priority="4" numLanes="1" speed="13.89" disallow="tram rail_urban rail rail_electric rail_fast ship" oneway="0"/>
    <type id="highway.unsurfaced" priority="1" numLanes="1" speed="8.33" disallow="tram rail_urban rail rail_electric rail_fast ship" oneway="0"/>
    <type id="railway.highspeed" priority="21" numLanes="1" speed="69.44" allow="rail_fast" oneway="1"/>
    <type id="railway.light_rail" priority="19" numLanes="1" speed="27.78" allow="rail_urban" oneway="1"/>
    <type id="railway.preserved" priority="16" numLanes="1" speed="27.78" allow="rail" oneway="1"/>
    <type id="railway.rail" priority="20" numLanes="1" speed="44.44" allow="rail" oneway="1"/>
    <type id="railway.subway" priority="18" numLanes="1" speed="27.78" allow="rail_urban" oneway="1"/>
    <type id="railway.tram" priority="17" numLanes="1" speed="13.89" allow="tram" oneway="1"/>

    <edge id=":1103406350_0" function="internal">
        <lane id=":1103406350_0_0" index="0" allow="private emergency authority army vip passenger hov taxi bus coach delivery truck trailer motorcycle evehicle custom1 custom2" speed="25.00" length="0.28" shape="8801.70,8456.87 8801.93,8456.88"/>
        <lane id=":1103406350_0_1" index="1" allow="private emergency authority army vip passenger hov taxi bus coach delivery truck trailer motorcycle evehicle custom1 custom2" speed="25.00" length="0.28" shape="8801.53,8460.06 8801.82,8460.08"/>
        <lane id=":1103406350_0_2" index="2" allow="private emergency authority army vip passenger hov taxi bus coach delivery truck trailer motorcycle evehicle custom1 custom2" speed="25.00" length="0.28" shape="8801.36,8463.26 8801.70,8463.27"/>
    </edge>
    <edge id=":1103406498_0" function="internal">
        <lane id=":1103406498_0_0" index="0" allow="private emergency authority army vip passenger hov taxi bus coach delivery truck trailer motorcycle evehicle custom1 custom2" speed="39.44" length="3.01" shape="8857.42,8478.43 8854.42,8478.33"/>
        <lane id=":1103406498_0_1" index="1" allow="private emergency authority army vip passenger hov taxi bus coach delivery truck trailer motorcycle evehicle custom1 custom2" speed="39.44" length="3.01" shape="8857.54,8475.24 8854.53,8475.13"/>
    </edge>
    <edge id=":1103406498_2" function="internal">
        <lane id=":1103406498_2_0" index="0" allow="private emergency authority army vip passenger hov taxi bus coach delivery truck trailer motorcycle evehicle custom1 custom2" speed="30.83" length="2.99" shape="8857.30,8481.63 8854.31,8481.53"/>
    </edge>
    <edge id=":1112072631_0" function="internal">
        <lane id=":1112072631_0_0" index="0" allow="private emergency authority army vip passenger hov taxi bus coach delivery truck trailer motorcycle evehicle custom1 custom2" speed="30.83" length="3.19" shape="9296.29,8657.14 9295.70,8656.40 9295.29,8655.91 9294.84,8655.43 9294.17,8654.76"/>
    </edge>
    <edge id=":1112072631_1" function="internal">
        <lane id=":1112072631_1_0" index="0" allow="private emergency authority army vip passenger hov taxi bus coach delivery truck trailer motorcycle evehicle custom1 custom2" speed="39.44" length="3.46" shape="9298.76,8654.93 9296.42,8652.49"/>
        <lane id=":1112072631_1_1" index="1" allow="private emergency authority army vip passenger hov taxi bus coach delivery truck trailer motorcycle evehicle custom1 custom2" speed="39.44" length="3.46" shape="9301.12,8652.77 9298.68,8650.22"/>
    </edge>
    <edge id=":1112072997_0" function="internal">
        <lane id=":1112072997_0_0" index="0" allow="private emergency authority army vip passenger hov taxi bus coach delivery truck trailer motorcycle evehicle custom1 custom2" speed="25.00" length="3.14" shape="9273.65,8599.60 9276.05,8601.61"/>
    </edge>
    <edge id=":1112072997_1" function="internal">
        <lane id=":1112072997_1_0" index="0" allow="private emergency authority army vip passenger hov taxi bus coach delivery truck trailer motorcycle evehicle custom1 custom2" speed="27.78" length="3.19" shape="9271.49,8601.95 9273.84,8604.29"/>
        <lane id=":1112072997_1_1" index="1" allow="private emergency authority army vip passenger hov taxi bus coach delivery truck trailer motorcycle evehicle custom1 custom2" speed="27.78" length="3.19" shape="9269.33,8604.31 9271.50,8606.47"/>
    </edge>
    <edge id=":1112073113_0" function="internal">
        <lane id=":1112073113_0_0" index="0" allow="private emergency authority army vip passenger hov taxi bus coach delivery truck trailer motorcycle evehicle custom1 custom2" speed="25.00" length="3.22" shape="9115.69,8625.34 9116.30,8626.07 9116.74,8626.56 9117.21,8627.02 9117.91,8627.66"/>
    </edge>
    <edge id=":1112073113_1" function="internal">
        <lane id=":1112073113_1_0" index="0" disallow="tram rail_urban rail rail_electric rail_fast ship" speed="27.78" length="3.38" shape="9113.32,8627.69 9115.76,8630.03"/>
    </edge>
    <edge id=":1112073130_0" function="internal">
        <lane id=":1112073130_0_0" index="0" allow="private emergency authority army vip passenger hov taxi bus coach delivery truck trailer motorcycle evehicle custom1 custom2" speed="25.00" length="3.17" shape="9222.33,8722.30 9223.03,8722.93 9223.52,8723.34 9224.03,8723.74 9224.79,8724.29"/>
    </edge>
    <edge id=":1112073130_1" function="internal">
        <lane id=":1112073130_1_0" index="0" disallow="tram rail_urban rail rail_electric rail_fast ship" speed="27.78" length="3.21" shape="9220.18,8724.67 9222.56,8726.83"/>
    </edge>
    <edge id=":1112073594_0" function="internal">
        <lane id=":1112073594_0_0" index="0" disallow="tram rail_urban rail rail_electric rail_fast ship" speed="27.78" length="3.30" shape="9496.77,8692.74 9497.74,8692.83 9498.41,8692.93 9499.06,8693.08 9500.00,8693.35"/>
    </edge>
    <edge id=":1112073594_1" function="internal">
        <lane id=":1112073594_1_0" index="0" allow="private emergency authority army vip passenger hov taxi bus coach delivery truck trailer motorcycle evehicle custom1 custom2" speed="25.00" length="3.91" shape="9497.05,8689.64 9498.21,8689.73 9499.00,8689.81 9499.78,8689.97 9500.89,8690.28"/>
    </edge>
    <edge id=":1131291424_0" function="internal">
        <lane id=":1131291424_0_0" index="0" allow="private emergency authority army vip passenger hov taxi bus coach delivery truck trailer motorcycle evehicle custom1 custom2" speed="25.00" length="2.67" shape="9495.21,8707.00 9492.63,8706.29"/>
    </edge>
    <edge id=":1131291424_1" function="internal">
        <lane id=":1131291424_1_0" index="0" disallow="tram rail_urban rail rail_electric rail_fast ship" speed="27.78" length="2.90" shape="9496.16,8703.95 9493.38,8703.16"/>
    </edge>
    <edge id=":124375189_0" function="internal">
        <lane id=":124375189_0_0" index="0" allow="private emergency authority army vip passenger hov taxi bus coach delivery truck trailer motorcycle evehicle custom1 custom2" speed="26.39" length="0.29" shape="9626.56,8964.02 9626.78,8964.18"/>
        <lane id=":124375189_0_1" index="1" allow="private emergency authority army vip passenger hov taxi bus coach delivery truck trailer motorcycle evehicle custom1 custom2" speed="26.39" length="0.29" shape="9624.73,8966.65 9624.98,8966.83"/>
    </edge>
    <edge id=":139455413-AddedOffRampNode_0" function="internal">
        <lane id=":139455413-AddedOffRampNode_0_0" index="0" allow="private emergency authority army vip passenger hov taxi bus coach delivery truck trailer motorcycle evehicle custom1 custom2" speed="39.44" length="8.27" shape="9504.48,8897.48 9502.24,8896.35 9500.35,8896.27 9498.46,8896.18 9496.22,8895.05"/>
        <lane id=":139455413-AddedOffRampNode_0_1" index="1" allow="private emergency authority army vip passenger hov taxi bus coach delivery truck trailer motorcycle evehicle custom1 custom2" speed="39.44" length="8.27" shape="9504.48,8897.48 9498.20,8892.53"/>
        <lane id=":139455413-AddedOffRampNode_0_2" index="2" allow="private emergency authority army vip passenger hov taxi bus coach delivery truck trailer motorcycle evehicle custom1 custom2" speed="39.44" length="8.27" shape="9506.46,8894.97 9500.18,8890.02"/>
    </edge>
    <edge id=":139455449#1-AddedOnRampNode_0" function="internal">
        <lane id=":139455449#1-AddedOnRampNode_0_0" index="0" allow="private emergency authority army vip passenger hov taxi bus coach delivery truck trailer motorcycle evehicle custom1 custom2" speed="27.78" length="0.10" shape="9262.99,8589.83 9262.99,8589.83"/>
        <lane id=":139455449#1-AddedOnRampNode_0_1" index="1" allow="private emergency authority army vip passenger hov taxi bus coach delivery truck trailer motorcycle evehicle custom1 custom2" speed="27.78" length="0.10" shape="9260.83,8592.19 9260.83,8592.19"/>
        <lane id=":139455449#1-AddedOnRampNode_0_2" index="2" allow="private emergency authority army vip passenger hov taxi bus coach delivery truck trailer motorcycle evehicle custom1 custom2" speed="27.78" length="0.10" shape="9258.67,8594.55 9258.67,8594.55"/>
    </edge>
    <edge id=":1528823302_0" function="internal">
        <lane id=":1528823302_0_0" index="0" allow="private emergency authority army vip passenger hov taxi bus coach delivery truck trailer motorcycle evehicle custom1 custom2" speed="25.00" length="3.68" shape="9106.20,8636.75 9105.41,8635.99 9104.88,8635.46 9104.38,8634.91 9103.67,8634.08"/>
    </edge>
    <edge id=":1528823302_1" function="internal">
        <lane id=":1528823302_1_0" index="0" disallow="tram rail_urban rail rail_electric rail_fast ship" speed="27.78" length="3.32" shape="9108.40,8634.41 9107.68,8633.74 9107.22,8633.25 9106.80,8632.72 9106.23,8631.91"/>
    </edge>
    <edge id=":1528823343_0" function="internal">
        <lane id=":1528823343_0_0" index="0" allow="private emergency authority army vip passenger hov taxi bus coach delivery truck trailer motorcycle evehicle custom1 custom2" speed="30.83" length="3.21" shape="9247.53,8608.47 9246.85,8607.80 9246.37,8607.35 9245.87,8606.94 9245.11,8606.36"/>
    </edge>
    <edge id=":1528823343_1" function="internal">
        <lane id=":1528823343_1_0" index="0" allow="private emergency authority army vip passenger hov taxi bus coach delivery truck trailer motorcycle evehicle custom1 custom2" speed="39.44" length="3.57" shape="9249.78,8606.19 9247.24,8603.83"/>
        <lane id=":1528823343_1_1" index="1" allow="private emergency authority army vip passenger hov taxi bus coach delivery truck trailer motorcycle evehicle custom1 custom2" speed="39.44" length="3.57" shape="9252.04,8603.92 9249.36,8601.43"/>
    </edge>
    <edge id=":1528823361_0" function="internal">
        <lane id=":1528823361_0_0" index="0" allow="private emergency authority army vip passenger hov taxi bus coach delivery truck trailer motorcycle evehicle custom1 custom2" speed="25.00" length="3.55" shape="8866.84,8458.32 8870.39,8458.23"/>
    </edge>
    <edge id=":1528823361_1" function="internal">
        <lane id=":1528823361_1_0" index="0" allow="private emergency authority army vip passenger hov taxi bus coach delivery truck trailer motorcycle evehicle custom1 custom2" speed="27.78" length="3.32" shape="8866.98,8461.52 8868.01,8461.47 8868.72,8461.46 8869.43,8461.48 8870.46,8461.53"/>
        <lane id=":1528823361_1_1" index="1" allow="private emergency authority army vip passenger hov taxi bus coach delivery truck trailer motorcycle evehicle custom1 custom2" speed="27.78" length="3.32" shape="8867.13,8464.71 8868.07,8464.67 8868.71,8464.66 8869.35,8464.68 8870.29,8464.73"/>
    </edge>
    <edge id=":1528823371_0" function="internal">
        <lane id=":1528823371_0_0" index="0" allow="private emergency authority army vip passenger hov taxi bus coach delivery truck trailer motorcycle evehicle custom1 custom2" speed="25.00" length="3.18" shape="9007.61,8324.43 9007.37,8323.52 9007.18,8322.90 9006.97,8322.29 9006.62,8321.41"/>
    </edge>
    <edge id=":1528823371_1" function="internal">
        <lane id=":1528823371_1_0" index="0" disallow="tram rail_urban rail rail_electric rail_fast ship" speed="27.78" length="3.32" shape="9010.75,8323.36 9009.60,8320.24"/>
    </edge>
    <edge id=":1528823383_0" function="internal">
        <lane id=":1528823383_0_0" index="0" allow="private emergency authority army vip passenger hov taxi bus coach delivery truck trailer motorcycle evehicle custom1 custom2" speed="25.00" length="2.97" shape="9044.74,8402.05 9045.48,8404.93"/>
    </edge>
    <edge id=":1528823383_1" function="internal">
        <lane id=":1528823383_1_0" index="0" disallow="tram rail_urban rail rail_electric rail_fast ship" speed="27.78" length="3.03" shape="9041.63,8402.82 9042.35,8405.76"/>
    </edge>
    <edge id=":1528823393_0" function="internal">
        <lane id=":1528823393_0_0" index="0" allow="private emergency authority army vip passenger hov taxi bus coach delivery truck trailer motorcycle evehicle custom1 custom2" speed="25.00" length="1.94" shape="9181.65,8528.57 9182.18,8528.80 9182.55,8528.95 9182.90,8529.13 9183.38,8529.44"/>
    </edge>
    <edge id=":1528823393_1" function="internal">
        <lane id=":1528823393_1_0" index="0" allow="private emergency authority army vip passenger hov taxi bus coach delivery truck trailer motorcycle evehicle custom1 custom2" speed="27.78" length="1.07" shape="9180.41,8531.45 9180.77,8531.61 9181.02,8531.73 9181.26,8531.88 9181.60,8532.10"/>
        <lane id=":1528823393_1_1" index="1" allow="private emergency authority army vip passenger hov taxi bus coach delivery truck trailer motorcycle evehicle custom1 custom2" speed="27.78" length="1.07" shape="9179.14,8534.39 9179.35,8534.48 9179.49,8534.55 9179.62,8534.63 9179.81,8534.76"/>
    </edge>
    <edge id=":26735829#0-AddedOffRampNode_0" function="internal">
        <lane id=":26735829#0-AddedOffRampNode_0_0" index="0" disallow="tram rail_urban rail rail_electric rail_fast ship" speed="27.78" length="8.42" shape="9018.04,8303.11 9018.74,8305.52 9019.92,8306.95 9021.22,8308.35 9022.25,8310.71"/>
        <lane id=":26735829#0-AddedOffRampNode_0_1" index="1" disallow="tram rail_urban rail rail_electric rail_fast ship" speed="27.78" length="8.42" shape="9018.04,8303.11 9018.23,8305.48 9018.33,8307.11 9018.53,8308.72 9019.03,8311.03"/>
    </edge>
    <edge id=":26735829#2-AddedOnRampNode_0" function="internal">
        <lane id=":26735829#2-AddedOnRampNode_0_0" index="0" disallow="tram rail_urban rail rail_electric rail_fast ship" speed="27.78" length="0.10" shape="9190.81,8693.73 9190.81,8693.73"/>
        <lane id=":26735829#2-AddedOnRampNode_0_1" index="1" disallow="tram rail_urban rail rail_electric rail_fast ship" speed="27.78" length="0.10" shape="9188.67,8696.11 9188.67,8696.11"/>
    </edge>
    <edge id=":293247477_0" function="internal">
        <lane id=":293247477_0_0" index="0" allow="private emergency authority army vip passenger hov taxi bus coach delivery truck trailer motorcycle evehicle custom1 custom2" speed="16.96" length="4.79" shape="9271.26,8777.41 9269.85,8777.23 9268.88,8777.08 9267.95,8776.77 9266.69,8776.14"/>
    </edge>
    <edge id=":293247477_1" function="internal">
        <lane id=":293247477_1_0" index="0" disallow="tram rail_urban rail rail_electric rail_fast ship" speed="13.00" length="3.59" shape="9271.59,8774.38 9270.54,8774.25 9269.82,8774.09 9269.14,8773.82 9268.20,8773.32"/>
    </edge>
    <edge id=":293247481_0" function="internal">
        <lane id=":293247481_0_0" index="0" allow="private emergency authority army vip passenger hov taxi bus coach delivery truck trailer motorcycle evehicle custom1 custom2" speed="30.83" length="3.36" shape="9425.52,8831.63 9423.29,8829.12"/>
    </edge>
    <edge id=":293247481_1" function="internal">
        <lane id=":293247481_1_0" index="0" allow="private emergency authority army vip passenger hov taxi bus coach delivery truck trailer motorcycle evehicle custom1 custom2" speed="39.44" length="3.29" shape="9427.89,8829.48 9427.21,8828.72 9426.75,8828.19 9426.31,8827.64 9425.70,8826.83"/>
        <lane id=":293247481_1_1" index="1" allow="private emergency authority army vip passenger hov taxi bus coach delivery truck trailer motorcycle evehicle custom1 custom2" speed="39.44" length="3.29" shape="9430.26,8827.32 9429.63,8826.63 9429.21,8826.15 9428.82,8825.65 9428.25,8824.90"/>
    </edge>
    <edge id=":293248273_0" function="internal">
        <lane id=":293248273_0_0" index="0" allow="private emergency authority army vip passenger hov taxi bus coach delivery truck trailer motorcycle evehicle custom1 custom2" speed="25.00" length="3.25" shape="9449.00,8818.89 9449.56,8819.67 9449.93,8820.22 9450.35,8820.74 9451.02,8821.42"/>
    </edge>
    <edge id=":293248273_1" function="internal">
        <lane id=":293248273_1_0" index="0" allow="private emergency authority army vip passenger hov taxi bus coach delivery truck trailer motorcycle evehicle custom1 custom2" speed="27.78" length="3.38" shape="9446.07,8820.75 9448.46,8823.40"/>
        <lane id=":293248273_1_1" index="1" allow="private emergency authority army vip passenger hov taxi bus coach delivery truck trailer motorcycle evehicle custom1 custom2" speed="27.78" length="3.38" shape="9443.79,8823.00 9445.90,8825.38"/>
    </edge>
    <edge id=":95098677#2-AddedOffRampNode_0" function="internal">
        <lane id=":95098677#2-AddedOffRampNode_0_0" index="0" allow="private emergency authority army vip passenger hov taxi bus coach delivery truck trailer motorcycle evehicle custom1 custom2" speed="22.22" length="8.27" shape="8764.78,8458.11 8767.27,8457.74 8768.86,8456.72 8770.46,8455.71 8772.94,8455.34"/>
        <lane id=":95098677#2-AddedOffRampNode_0_1" index="1" allow="private emergency authority army vip passenger hov taxi bus coach delivery truck trailer motorcycle evehicle custom1 custom2" speed="22.22" length="8.27" shape="8764.78,8458.11 8772.77,8458.53"/>
        <lane id=":95098677#2-AddedOffRampNode_0_2" index="2" allow="private emergency authority army vip passenger hov taxi bus coach delivery truck trailer motorcycle evehicle custom1 custom2" speed="22.22" length="8.27" shape="8764.61,8461.31 8772.60,8461.73"/>
    </edge>
    <edge id=":95117802-AddedOnRampNode_0" function="internal">
        <lane id=":95117802-AddedOnRampNode_0_0" index="0" allow="private emergency authority army vip passenger hov taxi bus coach delivery truck trailer motorcycle evehicle custom1 custom2" speed="39.44" length="8.00" shape="8759.98,8474.26 8752.00,8473.82"/>
        <lane id=":95117802-AddedOnRampNode_0_1" index="1" allow="private emergency authority army vip passenger hov taxi bus coach delivery truck trailer motorcycle evehicle custom1 custom2" speed="39.44" length="8.00" shape="8760.16,8471.06 8752.17,8470.62"/>
    </edge>
    <edge id=":95374583#1-AddedOnRampNode_0" function="internal">
        <lane id=":95374583#1-AddedOnRampNode_0_0" index="0" allow="private emergency authority army vip passenger hov taxi bus coach delivery truck trailer motorcycle evehicle custom1 custom2" speed="27.78" length="8.00" shape="9518.22,8886.19 9524.46,8891.19"/>
        <lane id=":95374583#1-AddedOnRampNode_0_1" index="1" allow="private emergency authority army vip passenger hov taxi bus coach delivery truck trailer motorcycle evehicle custom1 custom2" speed="27.78" length="8.00" shape="9516.22,8888.69 9522.46,8893.69"/>
    </edge>
    <edge id=":97721305#1-AddedOffRampNode_0" function="internal">
        <lane id=":97721305#1-AddedOffRampNode_0_0" index="0" disallow="tram rail_urban rail rail_electric rail_fast ship" speed="27.78" length="8.40" shape="9182.93,8704.55 9180.80,8703.23 9178.92,8702.97 9177.05,8702.72 9174.91,8701.40"/>
        <lane id=":97721305#1-AddedOffRampNode_0_1" index="1" disallow="tram rail_urban rail rail_electric rail_fast ship" speed="27.78" length="8.40" shape="9182.93,8704.55 9177.11,8699.07"/>
    </edge>
    <edge id=":97721305#1-AddedOnRampNode_0" function="internal">
        <lane id=":97721305#1-AddedOnRampNode_0_0" index="0" disallow="tram rail_urban rail rail_electric rail_fast ship" speed="27.78" length="8.00" shape="9194.56,8715.50 9188.74,8710.01"/>
    </edge>
    <edge id=":97721305#3-AddedOnRampNode_0" function="internal">
        <lane id=":97721305#3-AddedOnRampNode_0_0" index="0" disallow="tram rail_urban rail rail_electric rail_fast ship" speed="27.78" length="8.00" shape="8978.40,8231.27 8976.22,8223.57"/>
    </edge>

    <edge id="139455413" from="1528762191" to="139455413-AddedOffRampNode" name="Via de Cintura Interna" priority="14" type="highway.motorway" spreadType="center" shape="10084.00,9290.20 9988.97,9224.75 9837.72,9121.70 9764.80,9073.20 9683.34,9018.99 9621.54,8977.05 9528.88,8914.66 9502.33,8893.75">
        <lane id="139455413_0" index="0" allow="private emergency authority army vip passenger hov taxi bus coach delivery truck trailer motorcycle evehicle custom1 custom2" speed="39.44" length="700.02" shape="10083.09,9291.52 9988.07,9226.07 9836.83,9123.03 9763.91,9074.53 9682.45,9020.32 9620.64,8978.38 9527.94,8915.95 9504.48,8897.48">
            <param key="origId" value="139455413 95374600 95374589 95374596 95984958"/>
        </lane>
        <lane id="139455413_1" index="1" allow="private emergency authority army vip passenger hov taxi bus coach delivery truck trailer motorcycle evehicle custom1 custom2" speed="39.44" length="700.02" shape="10084.91,9288.88 9989.87,9223.43 9838.61,9120.37 9765.69,9071.87 9684.23,9017.66 9622.44,8975.72 9529.82,8913.37 9506.46,8894.97">
            <param key="origId" value="139455413 95374600 95374589 95374596 95984958"/>
        </lane>
        <param key="ref" value="A 44"/>
    </edge>
    <edge id="139455413-AddedOffRampEdge" from="139455413-AddedOffRampNode" to="293247481" name="Via de Cintura Interna" priority="14" type="highway.motorway" spreadType="center" shape="9501.34,8895.01 9479.35,8877.69 9434.50,8836.74 9426.73,8828.20">
        <lane id="139455413-AddedOffRampEdge_0" index="0" allow="private emergency authority army vip passenger hov taxi bus coach delivery truck trailer motorcycle evehicle custom1 custom2" speed="39.44" length="94.54" shape="9496.22,8895.05 9477.28,8880.13 9432.23,8839.00 9425.52,8831.63">
            <param key="origId" value="139455413 95374600 95374589 95374596 95984958"/>
        </lane>
        <lane id="139455413-AddedOffRampEdge_1" index="1" allow="private emergency authority army vip passenger hov taxi bus coach delivery truck trailer motorcycle evehicle custom1 custom2" speed="39.44" length="94.54" shape="9498.20,8892.53 9479.35,8877.69 9434.50,8836.74 9427.89,8829.48">
            <param key="origId" value="139455413 95374600 95374589 95374596 95984958"/>
        </lane>
        <lane id="139455413-AddedOffRampEdge_2" index="2" allow="private emergency authority army vip passenger hov taxi bus coach delivery truck trailer motorcycle evehicle custom1 custom2" speed="39.44" length="94.54" shape="9500.18,8890.02 9481.42,8875.25 9436.77,8834.48 9430.26,8827.32">
            <param key="origId" value="139455413 95374600 95374589 95374596 95984958"/>
        </lane>
        <param key="ref" value="A 44"/>
    </edge>
    <edge id="139455428" from="1131291424" to="293248273" name="Nó de Gervide" priority="9" type="highway.motorway_link" spreadType="center" shape="9493.92,8706.60 9475.80,8702.29 9457.00,8704.69 9437.44,8715.71 9427.14,8736.33 9425.64,8751.20 9430.72,8794.15 9449.95,8820.17">
        <lane id="139455428_0" index="0" allow="private emergency authority army vip passenger hov taxi bus coach delivery truck trailer motorcycle evehicle custom1 custom2" speed="22.22" length="170.71" shape="9492.63,8706.29 9475.80,8702.29 9457.00,8704.69 9437.44,8715.71 9427.14,8736.33 9425.64,8751.20 9430.72,8794.15 9449.00,8818.89">
            <param key="origId" value="139455428 139455430 97721399"/>
        </lane>
    </edge>
    <edge id="139455435#0" from="1112072631" to="1528823343" name="Via de Cintura Interna" priority="14" type="highway.motorway" spreadType="center" shape="9297.57,8653.63 9248.63,8605.05">
        <lane id="139455435#0_0" index="0" allow="private emergency authority army vip passenger hov taxi bus coach delivery truck trailer motorcycle evehicle custom1 custom2" speed="39.44" length="65.72" acceleration="1" shape="9294.17,8654.76 9247.53,8608.47">
            <param key="origId" value="139455435"/>
        </lane>
        <lane id="139455435#0_1" index="1" allow="private emergency authority army vip passenger hov taxi bus coach delivery truck trailer motorcycle evehicle custom1 custom2" speed="39.44" length="65.72" shape="9296.42,8652.49 9249.78,8606.19">
            <param key="origId" value="139455435"/>
        </lane>