<?xml version="1.0" encoding="UTF-8"?>

<!-- generated on 2023-06-21 16:23:00 by Eclipse SUMO netedit Version 1.15.0
<configuration xmlns:xsi="http://www.w3.org/2001/XMLSchema-instance" xsi:noNamespaceSchemaLocation="http://sumo.dlr.de/xsd/netconvertConfiguration.xsd">

    <input>
        <sumo-net-file value="C:\Users\Paulinho\Desktop\Master-Thesis\nodes\no_mercado_abastecedor.net.xml"/>
    </input>

    <output>
        <output-file value="C:\Users\Paulinho\Desktop\Master-Thesis\nodes\no_mercado_abastecedor.net.xml"/>
        <output.street-names value="true"/>
    </output>

    <processing>
        <geometry.min-radius.fix.railways value="false"/>
        <geometry.max-grade.fix value="false"/>
        <offset.disable-normalization value="true"/>
        <lefthand value="0"/>
    </processing>

    <junctions>
        <no-turnarounds value="true"/>
        <junctions.corner-detail value="5"/>
        <junctions.limit-turn-speed value="5.50"/>
        <rectangular-lane-cut value="0"/>
    </junctions>

    <pedestrian>
        <walkingareas value="0"/>
    </pedestrian>

    <netedit>
        <additional-files value="C:\Users\Paulinho\Desktop\Master-Thesis\nodes\no_mercado_abastecedor_poi.xml"/>
    </netedit>

</configuration>
-->

<net version="1.9" junctionCornerDetail="5" limitTurnSpeed="5.50" xmlns:xsi="http://www.w3.org/2001/XMLSchema-instance" xsi:noNamespaceSchemaLocation="http://sumo.dlr.de/xsd/net_file.xsd">

    <location netOffset="-524914.43,-4544541.91" convBoundary="9552.02,12154.78,10429.78,12805.01" origBoundary="-8.702913,41.051318,-8.236192,41.279522" projParameter="+proj=utm +zone=29 +ellps=WGS84 +datum=WGS84 +units=m +no_defs"/>

    <type id="highway.bridleway" priority="1" numLanes="1" speed="2.78" allow="pedestrian" oneway="1" width="2.00"/>
    <type id="highway.bus_guideway" priority="1" numLanes="1" speed="27.78" allow="bus" oneway="1"/>
    <type id="highway.cycleway" priority="1" numLanes="1" speed="5.56" allow="bicycle" oneway="0" width="1.00"/>
    <type id="highway.footway" priority="1" numLanes="1" speed="2.78" allow="pedestrian" oneway="1" width="2.00"/>
    <type id="highway.ford" priority="1" numLanes="1" speed="2.78" allow="army" oneway="0"/>
    <type id="highway.living_street" priority="2" numLanes="1" speed="2.78" disallow="tram rail_urban rail rail_electric rail_fast ship" oneway="0"/>
    <type id="highway.motorway" priority="14" numLanes="2" speed="39.44" allow="private emergency authority army vip passenger hov taxi bus coach delivery truck trailer motorcycle evehicle custom1 custom2" oneway="1"/>
    <type id="highway.motorway_link" priority="9" numLanes="1" speed="22.22" allow="private emergency authority army vip passenger hov taxi bus coach delivery truck trailer motorcycle evehicle custom1 custom2" oneway="1"/>
    <type id="highway.path" priority="1" numLanes="1" speed="5.56" allow="pedestrian bicycle" oneway="0" width="2.00"/>
    <type id="highway.pedestrian" priority="1" numLanes="1" speed="2.78" allow="pedestrian" oneway="1" width="2.00"/>
    <type id="highway.primary" priority="12" numLanes="2" speed="27.78" disallow="tram rail_urban rail rail_electric rail_fast ship" oneway="0"/>
    <type id="highway.primary_link" priority="7" numLanes="1" speed="22.22" disallow="tram rail_urban rail rail_electric rail_fast ship" oneway="0"/>
    <type id="highway.raceway" priority="15" numLanes="2" speed="83.33" allow="vip" oneway="0"/>
    <type id="highway.residential" priority="3" numLanes="1" speed="13.89" disallow="tram rail_urban rail rail_electric rail_fast ship" oneway="0"/>
    <type id="highway.secondary" priority="11" numLanes="1" speed="27.78" disallow="tram rail_urban rail rail_electric rail_fast ship" oneway="0"/>
    <type id="highway.secondary_link" priority="6" numLanes="1" speed="22.22" disallow="tram rail_urban rail rail_electric rail_fast ship" oneway="0"/>
    <type id="highway.service" priority="1" numLanes="1" speed="5.56" allow="pedestrian delivery bicycle" oneway="0"/>
    <type id="highway.stairs" priority="1" numLanes="1" speed="1.39" allow="pedestrian" oneway="1" width="2.00"/>
    <type id="highway.step" priority="1" numLanes="1" speed="1.39" allow="pedestrian" oneway="1" width="2.00"/>
    <type id="highway.steps" priority="1" numLanes="1" speed="1.39" allow="pedestrian" oneway="1" width="2.00"/>
    <type id="highway.tertiary" priority="10" numLanes="1" speed="22.22" disallow="tram rail_urban rail rail_electric rail_fast ship" oneway="0"/>
    <type id="highway.tertiary_link" priority="5" numLanes="1" speed="22.22" disallow="tram rail_urban rail rail_electric rail_fast ship" oneway="0"/>
    <type id="highway.track" priority="1" numLanes="1" speed="5.56" allow="pedestrian motorcycle moped bicycle" oneway="0"/>
    <type id="highway.trunk" priority="13" numLanes="2" speed="27.78" disallow="pedestrian bicycle tram rail_urban rail rail_electric rail_fast ship" oneway="0"/>
    <type id="highway.trunk_link" priority="8" numLanes="1" speed="22.22" disallow="pedestrian bicycle tram rail_urban rail rail_electric rail_fast ship" oneway="0"/>
    <type id="highway.unclassified" priority="4" numLanes="1" speed="13.89" disallow="tram rail_urban rail rail_electric rail_fast ship" oneway="0"/>
    <type id="highway.unsurfaced" priority="1" numLanes="1" speed="8.33" disallow="tram rail_urban rail rail_electric rail_fast ship" oneway="0"/>
    <type id="railway.highspeed" priority="21" numLanes="1" speed="69.44" allow="rail_fast" oneway="1"/>
    <type id="railway.light_rail" priority="19" numLanes="1" speed="27.78" allow="rail_urban" oneway="1"/>
    <type id="railway.preserved" priority="16" numLanes="1" speed="27.78" allow="rail" oneway="1"/>
    <type id="railway.rail" priority="20" numLanes="1" speed="44.44" allow="rail" oneway="1"/>
    <type id="railway.subway" priority="18" numLanes="1" speed="27.78" allow="rail_urban" oneway="1"/>
    <type id="railway.tram" priority="17" numLanes="1" speed="13.89" allow="tram" oneway="1"/>

    <edge id=":1216830850_0" function="internal">
        <lane id=":1216830850_0_0" index="0" disallow="tram rail_urban rail rail_electric rail_fast ship" speed="25.00" length="11.64" shape="10252.69,12462.70 10253.66,12466.08 10253.69,12468.58 10253.73,12471.08 10254.73,12474.45"/>
        <lane id=":1216830850_0_1" index="1" disallow="tram rail_urban rail rail_electric rail_fast ship" speed="25.00" length="11.64" shape="10249.75,12463.95 10250.62,12467.11 10250.59,12469.46 10250.56,12471.80 10251.46,12474.95"/>
    </edge>
    <edge id=":1216830850_2" function="internal">
        <lane id=":1216830850_2_0" index="0" disallow="tram rail_urban rail rail_electric rail_fast ship" speed="22.22" length="10.15" shape="10246.81,12465.20 10247.77,12468.01 10248.00,12470.05 10247.92,12472.16 10247.94,12475.18"/>
    </edge>
    <edge id=":1216830874_0" function="internal">
        <lane id=":1216830874_0_0" index="0" allow="private emergency authority army vip passenger hov taxi bus coach delivery truck trailer motorcycle evehicle custom1 custom2" speed="22.22" length="2.90" shape="10207.65,12339.93 10208.23,12337.09"/>
    </edge>
    <edge id=":1216830874_1" function="internal">
        <lane id=":1216830874_1_0" index="0" allow="private emergency authority army vip passenger hov taxi bus coach delivery truck trailer motorcycle evehicle custom1 custom2" speed="16.66" length="3.00" shape="10204.52,12339.35 10205.11,12336.40"/>
    </edge>
    <edge id=":1731168389_0" function="internal">
        <lane id=":1731168389_0_0" index="0" disallow="tram rail_urban rail rail_electric rail_fast ship" speed="22.22" length="13.74" shape="10173.68,12415.33 10177.86,12414.33 10180.50,12412.40 10183.14,12410.64 10187.30,12410.17"/>
        <lane id=":1731168389_0_1" index="1" disallow="tram rail_urban rail rail_electric rail_fast ship" speed="22.22" length="13.74" shape="10174.50,12418.51 10178.35,12417.52 10180.75,12415.61 10183.14,12413.85 10186.98,12413.36"/>
        <lane id=":1731168389_0_2" index="2" disallow="tram rail_urban rail rail_electric rail_fast ship" speed="22.22" length="13.74" shape="10174.50,12418.51 10178.14,12418.04 10180.59,12417.23 10183.04,12416.56 10186.66,12416.54"/>
    </edge>
    <edge id=":1731168389_3" function="internal">
        <lane id=":1731168389_3_0" index="0" allow="private emergency authority army vip passenger hov taxi bus coach delivery truck trailer motorcycle evehicle custom1 custom2" speed="16.66" length="12.02" shape="10174.96,12420.28 10177.93,12418.97 10180.30,12417.61 10182.92,12416.65 10186.66,12416.54"/>
        <lane id=":1731168389_3_1" index="1" allow="private emergency authority army vip passenger hov taxi bus coach delivery truck trailer motorcycle evehicle custom1 custom2" speed="16.66" length="12.02" shape="10174.96,12420.28 10177.95,12419.47 10180.31,12419.22 10182.84,12419.36 10186.34,12419.73"/>
    </edge>
    <edge id=":1731168589_0" function="internal">
        <lane id=":1731168589_0_0" index="0" disallow="tram rail_urban rail rail_electric rail_fast ship" speed="18.56" length="3.04" shape="10109.11,12470.54 10109.38,12469.72 10109.77,12469.23 10110.24,12468.78 10110.75,12468.04"/>
    </edge>
    <edge id=":1731168589_1" function="internal">
        <lane id=":1731168589_1_0" index="0" disallow="tram rail_urban rail rail_electric rail_fast ship" speed="22.22" length="1.50" shape="10112.26,12471.12 10112.40,12470.54 10112.56,12470.17 10112.75,12469.80 10112.96,12469.24"/>
        <lane id=":1731168589_1_1" index="1" disallow="tram rail_urban rail rail_electric rail_fast ship" speed="22.22" length="1.50" shape="10115.41,12471.69 10115.49,12471.41 10115.59,12471.24 10115.71,12471.07 10115.82,12470.80"/>
    </edge>
    <edge id=":1731168620_0" function="internal">
        <lane id=":1731168620_0_0" index="0" disallow="tram rail_urban rail rail_electric rail_fast ship" speed="27.78" length="9.53" shape="10254.95,12482.92 10256.44,12485.13 10258.14,12486.10 10260.06,12486.93 10262.22,12488.72"/>
    </edge>
    <edge id=":1731168728_0" function="internal">
        <lane id=":1731168728_0_0" index="0" disallow="tram rail_urban rail rail_electric rail_fast ship" speed="22.23" length="0.35" shape="10355.89,12527.69 10355.84,12527.66 10355.81,12527.65 10355.78,12527.63 10355.73,12527.61"/>
        <lane id=":1731168728_0_1" index="1" disallow="tram rail_urban rail rail_electric rail_fast ship" speed="22.23" length="0.35" shape="10357.42,12524.88 10357.28,12524.80 10357.19,12524.76 10357.09,12524.71 10356.94,12524.65"/>
    </edge>
    <edge id=":1731168876_0" function="internal">
        <lane id=":1731168876_0_0" index="0" allow="private emergency authority army vip passenger hov taxi bus coach delivery truck trailer motorcycle evehicle custom1 custom2" speed="16.66" length="3.17" shape="10165.12,12598.44 10164.51,12599.15 10164.10,12599.65 10163.71,12600.17 10163.17,12600.94"/>
    </edge>
    <edge id=":1731168876_1" function="internal">
        <lane id=":1731168876_1_0" index="0" allow="private emergency authority army vip passenger hov taxi bus coach delivery truck trailer motorcycle evehicle custom1 custom2" speed="22.22" length="2.98" shape="10162.17,12596.60 10160.55,12599.11"/>
    </edge>
    <edge id=":1731168926_0" function="internal">
        <lane id=":1731168926_0_0" index="0" allow="private emergency authority army vip passenger hov taxi bus coach delivery truck trailer motorcycle evehicle custom1 custom2" speed="22.22" length="3.17" shape="10131.31,12653.75 10129.87,12656.68"/>
        <lane id=":1731168926_0_1" index="1" allow="private emergency authority army vip passenger hov taxi bus coach delivery truck trailer motorcycle evehicle custom1 custom2" speed="22.22" length="3.17" shape="10128.35,12652.51 10126.99,12655.28"/>
    </edge>
    <edge id=":1731168926_2" function="internal">
        <lane id=":1731168926_2_0" index="0" allow="private emergency authority army vip passenger hov taxi bus coach delivery truck trailer motorcycle evehicle custom1 custom2" speed="22.22" length="3.27" shape="10126.79,12651.86 10126.20,12652.62 10125.48,12652.88 10124.75,12653.14 10124.11,12653.88"/>
        <lane id=":1731168926_2_1" index="1" allow="private emergency authority army vip passenger hov taxi bus coach delivery truck trailer motorcycle evehicle custom1 custom2" speed="22.22" length="3.27" shape="10123.83,12650.63 10123.27,12651.33 10122.57,12651.56 10121.85,12651.79 10121.24,12652.47"/>
        <lane id=":1731168926_2_2" index="2" allow="private emergency authority army vip passenger hov taxi bus coach delivery truck trailer motorcycle evehicle custom1 custom2" speed="22.22" length="3.27" shape="10120.88,12649.39 10118.36,12651.07"/>
    </edge>
    <edge id=":25507552_0" function="internal">
        <lane id=":25507552_0_0" index="0" allow="private emergency authority army vip passenger hov taxi bus coach delivery truck trailer motorcycle evehicle custom1 custom2" speed="18.05" length="3.31" shape="10015.27,12748.70 10016.11,12748.19 10016.67,12747.81 10017.19,12747.38 10017.91,12746.71"/>
    </edge>
    <edge id=":25507552_1" function="internal">
        <lane id=":25507552_1_0" index="0" allow="private emergency authority army vip passenger hov taxi bus coach delivery truck trailer motorcycle evehicle custom1 custom2" speed="22.22" length="3.91" shape="10016.94,12751.44 10019.96,12749.39"/>
        <lane id=":25507552_1_1" index="1" allow="private emergency authority army vip passenger hov taxi bus coach delivery truck trailer motorcycle evehicle custom1 custom2" speed="22.22" length="3.91" shape="10018.61,12754.17 10021.85,12751.98"/>
        <lane id=":25507552_1_2" index="2" allow="private emergency authority army vip passenger hov taxi bus coach delivery truck trailer motorcycle evehicle custom1 custom2" speed="22.22" length="3.91" shape="10020.27,12756.90 10023.73,12754.57"/>
    </edge>
    <edge id=":25507559_0" function="internal">
        <lane id=":25507559_0_0" index="0" allow="private emergency authority army vip passenger hov taxi bus coach delivery truck trailer motorcycle evehicle custom1 custom2" speed="22.22" length="5.46" shape="10238.82,12348.38 10238.91,12350.00 10238.90,12351.11 10238.83,12352.22 10238.69,12353.84"/>
    </edge>
    <edge id=":25507559_1" function="internal">
        <lane id=":25507559_1_0" index="0" allow="private emergency authority army vip passenger hov taxi bus coach delivery truck trailer motorcycle evehicle custom1 custom2" speed="22.22" length="4.14" shape="10235.63,12348.59 10235.72,12350.04 10235.72,12351.03 10235.62,12352.01 10235.39,12353.44"/>
        <lane id=":25507559_1_1" index="1" allow="private emergency authority army vip passenger hov taxi bus coach delivery truck trailer motorcycle evehicle custom1 custom2" speed="22.22" length="4.14" shape="10232.44,12348.80 10232.51,12350.03 10232.51,12350.87 10232.42,12351.71 10232.23,12352.92"/>
        <lane id=":25507559_1_2" index="2" allow="private emergency authority army vip passenger hov taxi bus coach delivery truck trailer motorcycle evehicle custom1 custom2" speed="22.22" length="4.14" shape="10229.24,12349.01 10229.30,12350.02 10229.30,12350.72 10229.23,12351.41 10229.08,12352.41"/>
    </edge>
    <edge id=":25507560_0" function="internal">
        <lane id=":25507560_0_0" index="0" allow="private emergency authority army vip passenger hov taxi bus coach delivery truck trailer motorcycle evehicle custom1 custom2" speed="22.22" length="7.84" shape="10217.46,12311.12 10217.04,12308.92 10216.35,12307.50 10215.59,12306.09 10214.96,12303.91"/>
        <lane id=":25507560_0_1" index="1" allow="private emergency authority army vip passenger hov taxi bus coach delivery truck trailer motorcycle evehicle custom1 custom2" speed="22.22" length="7.84" shape="10220.65,12310.88 10220.23,12308.59 10219.53,12307.11 10218.76,12305.64 10218.12,12303.37"/>
    </edge>
    <edge id=":26015866_0" function="internal">
        <lane id=":26015866_0_0" index="0" allow="private emergency authority army vip passenger hov taxi bus coach delivery truck trailer motorcycle evehicle custom1 custom2" speed="22.22" length="0.57" shape="9958.51,12774.15 9958.87,12774.05"/>
        <lane id=":26015866_0_1" index="1" allow="private emergency authority army vip passenger hov taxi bus coach delivery truck trailer motorcycle evehicle custom1 custom2" speed="22.22" length="0.57" shape="9959.36,12777.24 9959.85,12777.10"/>
        <lane id=":26015866_0_2" index="2" allow="private emergency authority army vip passenger hov taxi bus coach delivery truck trailer motorcycle evehicle custom1 custom2" speed="22.22" length="0.57" shape="9960.21,12780.33 9960.82,12780.15"/>
        <lane id=":26015866_0_3" index="3" allow="private emergency authority army vip passenger hov taxi bus coach delivery truck trailer motorcycle evehicle custom1 custom2" speed="22.22" length="0.57" shape="9961.05,12783.41 9961.79,12783.20"/>
    </edge>
    <edge id=":343634530_0" function="internal">
        <lane id=":343634530_0_0" index="0" disallow="tram rail_urban rail rail_electric rail_fast ship" speed="27.78" length="18.10" shape="10155.69,12208.59 10160.59,12226.02"/>
    </edge>
    <edge id=":343634530_1" function="internal">
        <lane id=":343634530_1_0" index="0" allow="private emergency authority army vip passenger hov taxi bus coach delivery truck trailer motorcycle evehicle custom1 custom2" speed="19.45" length="18.10" shape="10155.69,12208.59 10156.45,12212.73 10156.82,12217.52 10156.98,12222.36 10157.14,12226.60"/>
    </edge>
    <edge id=":35229256-AddedOffRampNode_0" function="internal">
        <lane id=":35229256-AddedOffRampNode_0_0" index="0" allow="private emergency authority army vip passenger hov taxi bus coach delivery truck trailer motorcycle evehicle custom1 custom2" speed="11.11" length="8.50" shape="10126.40,12345.31 10125.36,12347.73 10125.21,12349.70 10124.92,12351.55 10123.48,12353.64"/>
        <lane id=":35229256-AddedOffRampNode_0_1" index="1" allow="private emergency authority army vip passenger hov taxi bus coach delivery truck trailer motorcycle evehicle custom1 custom2" speed="11.11" length="8.50" shape="10126.40,12345.31 10125.07,12347.27 10124.06,12348.53 10122.92,12349.70 10121.23,12351.36"/>
    </edge>
    <edge id=":404066463_0" function="internal">
        <lane id=":404066463_0_0" index="0" disallow="tram rail_urban rail rail_electric rail_fast ship" speed="20.87" length="22.44" shape="10115.28,12438.02 10121.54,12436.90 10125.78,12435.63 10129.58,12433.41 10134.51,12429.44"/>
        <lane id=":404066463_0_1" index="1" disallow="tram rail_urban rail rail_electric rail_fast ship" speed="21.31" length="22.44" shape="10116.62,12441.04 10123.13,12439.83 10127.53,12438.44 10131.46,12436.06 10136.59,12431.88"/>
        <lane id=":404066463_0_2" index="2" disallow="tram rail_urban rail rail_electric rail_fast ship" speed="21.74" length="22.44" shape="10117.96,12444.06 10124.73,12442.77 10129.27,12441.25 10133.34,12438.70 10138.66,12434.32"/>
    </edge>
    <edge id=":404066463_3" function="internal">
        <lane id=":404066463_3_0" index="0" disallow="tram rail_urban rail rail_electric rail_fast ship" speed="22.22" length="22.70" shape="10121.69,12449.09 10124.87,12443.76 10127.73,12439.98 10131.29,12436.45 10136.59,12431.88"/>
        <lane id=":404066463_3_1" index="1" disallow="tram rail_urban rail rail_electric rail_fast ship" speed="22.22" length="22.70" shape="10124.17,12451.21 10127.31,12445.91 10130.07,12442.20 10133.51,12438.77 10138.66,12434.32"/>
    </edge>
    <edge id=":404066469_0" function="internal">
        <lane id=":404066469_0_0" index="0" disallow="tram rail_urban rail rail_electric rail_fast ship" speed="24.31" length="32.91" shape="10106.21,12495.97 10104.68,12485.24 10103.22,12475.81 10101.55,12468.46 10099.41,12463.95"/>
    </edge>
    <edge id=":404066469_1" function="internal">
        <lane id=":404066469_1_0" index="0" disallow="tram rail_urban rail rail_electric rail_fast ship" speed="22.22" length="25.64" shape="10106.21,12495.97 10105.55,12488.49 10106.09,12483.33 10107.40,12478.19 10109.07,12470.74"/>
        <lane id=":404066469_1_1" index="1" disallow="tram rail_urban rail rail_electric rail_fast ship" speed="22.22" length="24.59" shape="10109.38,12495.50 10108.76,12488.33 10109.31,12483.38 10110.60,12478.45 10112.22,12471.31"/>
        <lane id=":404066469_1_2" index="2" disallow="tram rail_urban rail rail_electric rail_fast ship" speed="22.22" length="23.55" shape="10112.54,12495.03 10111.97,12488.16 10112.53,12483.44 10113.80,12478.72 10115.37,12471.89"/>
    </edge>
    <edge id=":404072485_0" function="internal">
        <lane id=":404072485_0_0" index="0" disallow="tram rail_urban rail rail_electric rail_fast ship" speed="22.22" length="9.19" shape="10225.33,12423.33 10227.69,12424.92 10229.19,12426.18 10230.61,12427.54 10232.75,12429.44"/>
        <lane id=":404072485_0_1" index="1" disallow="tram rail_urban rail rail_electric rail_fast ship" speed="22.22" length="9.19" shape="10223.65,12426.06 10225.90,12427.57 10227.32,12428.78 10228.67,12430.09 10230.71,12431.90"/>
        <lane id=":404072485_0_2" index="2" disallow="tram rail_urban rail rail_electric rail_fast ship" speed="22.22" length="9.19" shape="10221.97,12428.78 10224.11,12430.23 10225.45,12431.39 10226.73,12432.64 10228.67,12434.37"/>
    </edge>
    <edge id=":404072485_3" function="internal">
        <lane id=":404072485_3_0" index="0" allow="private emergency authority army vip passenger hov taxi bus coach delivery truck trailer motorcycle evehicle custom1 custom2" speed="11.71" length="7.66" shape="10220.29,12431.51 10222.25,12432.67 10223.58,12433.56 10224.62,12434.72 10225.68,12436.68"/>
    </edge>
    <edge id=":404072500_0" function="internal">
        <lane id=":404072500_0_0" index="0" disallow="tram rail_urban rail rail_electric rail_fast ship" speed="19.45" length="4.47" shape="10230.22,12539.72 10229.37,12540.73 10228.77,12541.42 10228.12,12542.05 10227.12,12542.92"/>
    </edge>
    <edge id=":404072500_1" function="internal">
        <lane id=":404072500_1_0" index="0" disallow="tram rail_urban rail rail_electric rail_fast ship" speed="22.22" length="3.82" shape="10227.64,12537.66 10226.96,12538.57 10226.48,12539.18 10225.93,12539.72 10225.07,12540.46"/>
    </edge>
    <edge id=":404072511_0" function="internal">
        <lane id=":404072511_0_0" index="0" disallow="tram rail_urban rail rail_electric rail_fast ship" speed="17.64" length="7.33" shape="10157.67,12557.94 10155.30,12557.78 10153.65,12557.67 10152.09,12557.28 10149.98,12556.27"/>
        <lane id=":404072511_0_1" index="1" disallow="tram rail_urban rail rail_electric rail_fast ship" speed="16.16" length="7.33" shape="10157.98,12554.75 10156.00,12554.64 10154.61,12554.58 10153.29,12554.29 10151.52,12553.46"/>
    </edge>
    <edge id=":404072511_2" function="internal">
        <lane id=":404072511_2_0" index="0" allow="private emergency authority army vip passenger hov taxi bus coach delivery truck trailer motorcycle evehicle custom1 custom2" speed="9.01" length="5.06" shape="10157.94,12551.25 10156.45,12551.45 10155.39,12551.51 10154.39,12551.29 10153.06,12550.66"/>
    </edge>
    <edge id=":404379906_0" function="internal">
        <lane id=":404379906_0_0" index="0" allow="private emergency authority army vip passenger hov taxi bus coach delivery truck trailer motorcycle evehicle custom1 custom2" speed="22.22" length="3.59" shape="10161.88,12414.28 10165.23,12412.99"/>
    </edge>
    <edge id=":404379906_1" function="internal">
        <lane id=":404379906_1_0" index="0" disallow="tram rail_urban rail rail_electric rail_fast ship" speed="22.22" length="3.98" shape="10162.99,12417.28 10164.10,12416.87 10164.88,12416.63 10165.67,12416.47 10166.84,12416.29"/>
        <lane id=":404379906_1_1" index="1" disallow="tram rail_urban rail rail_electric rail_fast ship" speed="22.22" length="3.32" shape="10164.10,12420.28 10165.03,12419.94 10165.68,12419.74 10166.34,12419.60 10167.31,12419.45"/>
    </edge>
    <edge id=":404746426_0" function="internal">
        <lane id=":404746426_0_0" index="0" disallow="tram rail_urban rail rail_electric rail_fast ship" speed="22.22" length="2.65" shape="10098.76,12438.95 10100.04,12441.02"/>
        <lane id=":404746426_0_1" index="1" disallow="tram rail_urban rail rail_electric rail_fast ship" speed="22.22" length="2.65" shape="10097.57,12441.92 10099.37,12444.15"/>
    </edge>
    <edge id=":404746426_2" function="internal">
        <lane id=":404746426_2_0" index="0" disallow="tram rail_urban rail rail_electric rail_fast ship" speed="22.22" length="1.43" shape="10099.33,12437.54 10099.73,12437.68 10100.01,12437.75 10100.29,12437.81 10100.71,12437.89"/>
    </edge>
    <edge id=":409114746_0" function="internal">
        <lane id=":409114746_0_0" index="0" allow="private emergency authority army vip passenger hov taxi bus coach delivery truck trailer motorcycle evehicle custom1 custom2" speed="13.89" length="8.13" shape="10056.13,12703.04 10057.24,12700.95 10057.65,12699.33 10058.04,12697.70 10059.08,12695.55"/>
        <lane id=":409114746_0_1" index="1" allow="private emergency authority army vip passenger hov taxi bus coach delivery truck trailer motorcycle evehicle custom1 custom2" speed="13.89" length="8.13" shape="10056.13,12703.04 10057.67,12701.20 10059.01,12700.17 10060.33,12699.13 10061.80,12697.24"/>
    </edge>
    <edge id=":409114759_0" function="internal">
        <lane id=":409114759_0_0" index="0" allow="private emergency authority army vip passenger hov taxi bus coach delivery truck trailer motorcycle evehicle custom1 custom2" speed="11.11" length="4.79" shape="10133.50,12499.18 10133.35,12497.78 10133.11,12496.84 10132.70,12495.94 10132.06,12494.67"/>
    </edge>
    <edge id=":409114759_1" function="internal">
        <lane id=":409114759_1_0" index="0" allow="private emergency authority army vip passenger hov taxi bus coach delivery truck trailer motorcycle evehicle custom1 custom2" speed="11.11" length="9.85" shape="10136.70,12498.95 10136.43,12496.04 10136.20,12494.04 10136.11,12492.05 10136.24,12489.13"/>
    </edge>
    <edge id=":411018958_0" function="internal">
        <lane id=":411018958_0_0" index="0" disallow="tram rail_urban rail rail_electric rail_fast ship" speed="27.78" length="11.64" shape="9990.39,12413.36 9979.67,12408.84"/>
    </edge>
    <edge id=":411018958_1" function="internal">
        <lane id=":411018958_1_0" index="0" disallow="tram rail_urban rail rail_electric rail_fast ship" speed="25.23" length="11.66" shape="9991.18,12409.79 9987.92,12409.85 9985.28,12409.97 9982.72,12409.77 9979.67,12408.84"/>
    </edge>
    <edge id=":412513636_0" function="internal">
        <lane id=":412513636_0_0" index="0" allow="private emergency authority army vip passenger hov taxi bus coach delivery truck trailer motorcycle evehicle custom1 custom2" speed="11.11" length="2.60" shape="10087.74,12424.34 10089.22,12426.47"/>
    </edge>
    <edge id=":412513636_1" function="internal">
        <lane id=":412513636_1_0" index="0" allow="private emergency authority army vip passenger hov taxi bus coach delivery truck trailer motorcycle evehicle custom1 custom2" speed="16.66" length="2.84" shape="10085.04,12426.06 10086.67,12428.38"/>
    </edge>
    <edge id=":413275483_0" function="internal">
        <lane id=":413275483_0_0" index="0" allow="private emergency authority army vip passenger hov taxi bus coach delivery truck trailer motorcycle evehicle custom1 custom2" speed="22.22" length="2.16" shape="10198.61,12253.47 10198.50,12252.88 10198.41,12252.48 10198.30,12252.09 10198.11,12251.52"/>
        <lane id=":413275483_0_1" index="1" allow="private emergency authority army vip passenger hov taxi bus coach delivery truck trailer motorcycle evehicle custom1 custom2" speed="22.22" length="2.16" shape="10201.73,12252.75 10201.61,12252.08 10201.50,12251.62 10201.37,12251.18 10201.15,12250.53"/>
    </edge>
    <edge id=":413275483_2" function="internal">
        <lane id=":413275483_2_0" index="0" allow="private emergency authority army vip passenger hov taxi bus coach delivery truck trailer motorcycle evehicle custom1 custom2" speed="22.22" length="2.74" shape="10204.87,12252.03 10204.70,12251.28 10204.57,12250.77 10204.43,12250.26 10204.19,12249.53"/>
        <lane id=":413275483_2_1" index="1" allow="private emergency authority army vip passenger hov taxi bus coach delivery truck trailer motorcycle evehicle custom1 custom2" speed="22.22" length="2.74" shape="10207.99,12251.31 10207.80,12250.48 10207.66,12249.91 10207.49,12249.35 10207.23,12248.54"/>
    </edge>
    <edge id=":413301102_0" function="internal">
        <lane id=":413301102_0_0" index="0" allow="private emergency authority army vip passenger hov taxi bus coach delivery truck trailer motorcycle evehicle custom1 custom2" speed="25.00" length="3.21" shape="10293.68,12497.40 10294.61,12497.63 10295.25,12497.77 10295.89,12497.87 10296.84,12497.99"/>
    </edge>
    <edge id=":413301102_1" function="internal">
        <lane id=":413301102_1_0" index="0" disallow="tram rail_urban rail rail_electric rail_fast ship" speed="27.78" length="3.18" shape="10293.30,12500.82 10296.47,12501.17"/>
    </edge>
    <edge id=":413301106_0" function="internal">
        <lane id=":413301106_0_0" index="0" allow="private emergency authority army vip passenger hov taxi bus coach delivery truck trailer motorcycle evehicle custom1 custom2" speed="19.45" length="12.15" shape="10325.96,12517.96 10322.27,12517.34 10319.57,12517.19 10317.03,12517.25 10313.87,12517.23"/>
    </edge>
    <edge id=":413301106_1" function="internal">
        <lane id=":413301106_1_0" index="0" disallow="tram rail_urban rail rail_electric rail_fast ship" speed="22.23" length="12.40" shape="10326.63,12514.83 10322.84,12514.28 10320.03,12514.23 10317.43,12514.23 10314.30,12513.81"/>
    </edge>