<?xml version="1.0" encoding="UTF-8"?>

<!-- generated on 2023-06-24 17:43:58 by Eclipse SUMO netedit Version 1.15.0
<configuration xmlns:xsi="http://www.w3.org/2001/XMLSchema-instance" xsi:noNamespaceSchemaLocation="http://sumo.dlr.de/xsd/netconvertConfiguration.xsd">

    <input>
        <sumo-net-file value="C:\Users\Paulinho\Desktop\Master-Thesis\nodes\no_paranhos.net.xml"/>
    </input>

    <output>
        <output-file value="C:\Users\Paulinho\Desktop\Master-Thesis\nodes\no_paranhos.net.xml"/>
        <output.street-names value="true"/>
    </output>

    <processing>
        <geometry.min-radius.fix.railways value="false"/>
        <geometry.max-grade.fix value="false"/>
        <offset.disable-normalization value="true"/>
        <lefthand value="0"/>
    </processing>

    <junctions>
        <no-turnarounds value="true"/>
        <junctions.corner-detail value="5"/>
        <junctions.limit-turn-speed value="5.50"/>
        <rectangular-lane-cut value="0"/>
    </junctions>

    <pedestrian>
        <walkingareas value="0"/>
    </pedestrian>

    <netedit>
        <additional-files value="C:\Users\Paulinho\Desktop\Master-Thesis\nodes\no_paranhos_poi.xml"/>
    </netedit>

</configuration>
-->

<net version="1.9" junctionCornerDetail="5" limitTurnSpeed="5.50" xmlns:xsi="http://www.w3.org/2001/XMLSchema-instance" xsi:noNamespaceSchemaLocation="http://sumo.dlr.de/xsd/net_file.xsd">

    <location netOffset="-524914.43,-4544541.91" convBoundary="7866.12,13083.68,8723.45,13604.84" origBoundary="-8.702913,41.051318,-8.236192,41.279522" projParameter="+proj=utm +zone=29 +ellps=WGS84 +datum=WGS84 +units=m +no_defs"/>

    <type id="highway.bridleway" priority="1" numLanes="1" speed="2.78" allow="pedestrian" oneway="1" width="2.00"/>
    <type id="highway.bus_guideway" priority="1" numLanes="1" speed="27.78" allow="bus" oneway="1"/>
    <type id="highway.cycleway" priority="1" numLanes="1" speed="5.56" allow="bicycle" oneway="0" width="1.00"/>
    <type id="highway.footway" priority="1" numLanes="1" speed="2.78" allow="pedestrian" oneway="1" width="2.00"/>
    <type id="highway.ford" priority="1" numLanes="1" speed="2.78" allow="army" oneway="0"/>
    <type id="highway.living_street" priority="2" numLanes="1" speed="2.78" disallow="tram rail_urban rail rail_electric rail_fast ship" oneway="0"/>
    <type id="highway.motorway" priority="14" numLanes="2" speed="39.44" allow="private emergency authority army vip passenger hov taxi bus coach delivery truck trailer motorcycle evehicle custom1 custom2" oneway="1"/>
    <type id="highway.motorway_link" priority="9" numLanes="1" speed="22.22" allow="private emergency authority army vip passenger hov taxi bus coach delivery truck trailer motorcycle evehicle custom1 custom2" oneway="1"/>
    <type id="highway.path" priority="1" numLanes="1" speed="5.56" allow="pedestrian bicycle" oneway="0" width="2.00"/>
    <type id="highway.pedestrian" priority="1" numLanes="1" speed="2.78" allow="pedestrian" oneway="1" width="2.00"/>
    <type id="highway.primary" priority="12" numLanes="2" speed="27.78" disallow="tram rail_urban rail rail_electric rail_fast ship" oneway="0"/>
    <type id="highway.primary_link" priority="7" numLanes="1" speed="22.22" disallow="tram rail_urban rail rail_electric rail_fast ship" oneway="0"/>
    <type id="highway.raceway" priority="15" numLanes="2" speed="83.33" allow="vip" oneway="0"/>
    <type id="highway.residential" priority="3" numLanes="1" speed="13.89" disallow="tram rail_urban rail rail_electric rail_fast ship" oneway="0"/>
    <type id="highway.secondary" priority="11" numLanes="1" speed="27.78" disallow="tram rail_urban rail rail_electric rail_fast ship" oneway="0"/>
    <type id="highway.secondary_link" priority="6" numLanes="1" speed="22.22" disallow="tram rail_urban rail rail_electric rail_fast ship" oneway="0"/>
    <type id="highway.service" priority="1" numLanes="1" speed="5.56" allow="pedestrian delivery bicycle" oneway="0"/>
    <type id="highway.stairs" priority="1" numLanes="1" speed="1.39" allow="pedestrian" oneway="1" width="2.00"/>
    <type id="highway.step" priority="1" numLanes="1" speed="1.39" allow="pedestrian" oneway="1" width="2.00"/>
    <type id="highway.steps" priority="1" numLanes="1" speed="1.39" allow="pedestrian" oneway="1" width="2.00"/>
    <type id="highway.tertiary" priority="10" numLanes="1" speed="22.22" disallow="tram rail_urban rail rail_electric rail_fast ship" oneway="0"/>
    <type id="highway.tertiary_link" priority="5" numLanes="1" speed="22.22" disallow="tram rail_urban rail rail_electric rail_fast ship" oneway="0"/>
    <type id="highway.track" priority="1" numLanes="1" speed="5.56" allow="pedestrian motorcycle moped bicycle" oneway="0"/>
    <type id="highway.trunk" priority="13" numLanes="2" speed="27.78" disallow="pedestrian bicycle tram rail_urban rail rail_electric rail_fast ship" oneway="0"/>
    <type id="highway.trunk_link" priority="8" numLanes="1" speed="22.22" disallow="pedestrian bicycle tram rail_urban rail rail_electric rail_fast ship" oneway="0"/>
    <type id="highway.unclassified" priority="4" numLanes="1" speed="13.89" disallow="tram rail_urban rail rail_electric rail_fast ship" oneway="0"/>
    <type id="highway.unsurfaced" priority="1" numLanes="1" speed="8.33" disallow="tram rail_urban rail rail_electric rail_fast ship" oneway="0"/>
    <type id="railway.highspeed" priority="21" numLanes="1" speed="69.44" allow="rail_fast" oneway="1"/>
    <type id="railway.light_rail" priority="19" numLanes="1" speed="27.78" allow="rail_urban" oneway="1"/>
    <type id="railway.preserved" priority="16" numLanes="1" speed="27.78" allow="rail" oneway="1"/>
    <type id="railway.rail" priority="20" numLanes="1" speed="44.44" allow="rail" oneway="1"/>
    <type id="railway.subway" priority="18" numLanes="1" speed="27.78" allow="rail_urban" oneway="1"/>
    <type id="railway.tram" priority="17" numLanes="1" speed="13.89" allow="tram" oneway="1"/>

    <edge id=":128578702_0" function="internal">
        <lane id=":128578702_0_0" index="0" allow="private emergency authority army vip passenger hov taxi bus coach delivery truck trailer motorcycle evehicle custom1 custom2" speed="22.22" length="6.76" shape="8082.88,13374.53 8084.06,13372.87 8084.62,13371.53 8085.26,13370.27 8086.66,13368.86"/>
        <lane id=":128578702_0_1" index="1" allow="private emergency authority army vip passenger hov taxi bus coach delivery truck trailer motorcycle evehicle custom1 custom2" speed="22.22" length="6.76" shape="8082.88,13374.53 8084.34,13373.30 8085.61,13372.80 8086.95,13372.38 8088.62,13371.38"/>
    </edge>
    <edge id=":128578706_0" function="internal">
        <lane id=":128578706_0_0" index="0" disallow="tram rail_urban rail rail_electric rail_fast ship" speed="18.05" length="14.51" shape="8159.32,13327.95 8151.20,13315.93"/>
    </edge>
    <edge id=":128578706_1" function="internal">
        <lane id=":128578706_1_0" index="0" allow="private emergency authority army vip passenger hov taxi bus coach delivery truck trailer motorcycle evehicle custom1 custom2" speed="6.49" length="9.08" shape="8149.80,13323.74 8151.63,13322.07 8152.48,13320.21 8152.34,13318.16 8151.20,13315.93"/>
    </edge>
    <edge id=":128578706_2" function="internal">
        <lane id=":128578706_2_0" index="0" allow="private emergency authority army vip passenger hov taxi bus coach delivery truck trailer motorcycle evehicle custom1 custom2" speed="22.22" length="11.76" shape="8151.59,13326.39 8154.15,13324.05 8155.36,13321.86 8156.51,13319.61 8158.94,13317.09"/>
        <lane id=":128578706_2_1" index="1" allow="private emergency authority army vip passenger hov taxi bus coach delivery truck trailer motorcycle evehicle custom1 custom2" speed="22.22" length="11.76" shape="8151.59,13326.39 8160.91,13319.61"/>
    </edge>
    <edge id=":128579264_0" function="internal">
        <lane id=":128579264_0_0" index="0" allow="private emergency authority army vip passenger hov taxi bus coach delivery truck trailer motorcycle evehicle custom1 custom2" speed="22.22" length="38.33" shape="8022.17,13500.30 8016.08,13504.66 8009.41,13509.34 8001.65,13515.32 7992.29,13523.61"/>
        <lane id=":128579264_0_1" index="1" allow="private emergency authority army vip passenger hov taxi bus coach delivery truck trailer motorcycle evehicle custom1 custom2" speed="22.22" length="38.33" shape="8020.23,13497.75 8014.12,13502.14 8007.38,13506.86 7999.54,13512.91 7990.09,13521.28"/>
        <lane id=":128579264_0_2" index="2" allow="private emergency authority army vip passenger hov taxi bus coach delivery truck trailer motorcycle evehicle custom1 custom2" speed="22.22" length="38.33" shape="8020.23,13497.75 8013.79,13501.75 8006.34,13505.64 7997.75,13510.89 7987.89,13518.95"/>
    </edge>
    <edge id=":128579264_3" function="internal">
        <lane id=":128579264_3_0" index="0" allow="private emergency authority army vip passenger hov taxi bus coach delivery truck trailer motorcycle evehicle custom1 custom2" speed="22.22" length="38.20" shape="8017.83,13494.97 7990.09,13521.28"/>
        <lane id=":128579264_3_1" index="1" allow="private emergency authority army vip passenger hov taxi bus coach delivery truck trailer motorcycle evehicle custom1 custom2" speed="22.22" length="38.20" shape="8015.60,13492.67 7987.89,13518.95"/>
        <lane id=":128579264_3_2" index="2" allow="private emergency authority army vip passenger hov taxi bus coach delivery truck trailer motorcycle evehicle custom1 custom2" speed="22.22" length="38.20" shape="8013.38,13490.37 7985.69,13516.63"/>
    </edge>
    <edge id=":128579825_0" function="internal">
        <lane id=":128579825_0_0" index="0" allow="private emergency authority army vip passenger hov taxi bus coach delivery truck trailer motorcycle evehicle custom1 custom2" speed="22.22" length="5.06" shape="8060.25,13480.69 8058.76,13480.89 8057.74,13481.04 8056.74,13481.29 8055.34,13481.80"/>
    </edge>
    <edge id=":128579825_1" function="internal">
        <lane id=":128579825_1_0" index="0" allow="private emergency authority army vip passenger hov taxi bus coach delivery truck trailer motorcycle evehicle custom1 custom2" speed="22.22" length="5.74" shape="8059.72,13477.48 8058.04,13477.76 8056.88,13477.95 8055.75,13478.25 8054.16,13478.83"/>
    </edge>
    <edge id=":128580161_0" function="internal">
        <lane id=":128580161_0_0" index="0" disallow="tram rail_urban rail rail_electric rail_fast ship" speed="8.81" length="7.01" shape="8169.35,13507.46 8167.98,13508.59 8167.26,13509.61 8166.87,13510.86 8166.48,13512.64"/>
        <lane id=":128580161_0_1" index="1" disallow="tram rail_urban rail rail_electric rail_fast ship" speed="9.89" length="7.01" shape="8169.35,13507.46 8167.25,13508.55 8165.53,13509.13 8164.23,13509.99 8163.36,13511.91"/>
    </edge>
    <edge id=":128580161_2" function="internal">
        <lane id=":128580161_2_0" index="0" allow="private emergency authority army vip passenger hov taxi bus coach delivery truck trailer motorcycle evehicle custom1 custom2" speed="7.47" length="6.94" shape="8157.13,13510.46 8157.26,13508.89 8156.92,13507.33 8156.11,13505.77 8154.83,13504.22"/>
    </edge>
    <edge id=":128580161_3" function="internal">
        <lane id=":128580161_3_0" index="0" disallow="tram rail_urban rail rail_electric rail_fast ship" speed="13.89" length="7.83" shape="8157.13,13510.46 8157.67,13508.30 8158.14,13506.85 8158.70,13505.43 8159.52,13503.36"/>
        <lane id=":128580161_3_1" index="1" disallow="tram rail_urban rail rail_electric rail_fast ship" speed="13.89" length="7.83" shape="8160.25,13511.19 8160.79,13509.05 8161.26,13507.62 8161.82,13506.21 8162.64,13504.16"/>
        <lane id=":128580161_3_2" index="2" disallow="tram rail_urban rail rail_electric rail_fast ship" speed="13.89" length="7.83" shape="8160.25,13511.19 8161.25,13509.03 8162.67,13507.95 8164.27,13506.94 8165.79,13504.96"/>
    </edge>
    <edge id=":128581932_0" function="internal">
        <lane id=":128581932_0_0" index="0" disallow="tram rail_urban rail rail_electric rail_fast ship" speed="20.84" length="0.32" shape="8179.55,13472.11 8179.61,13472.02"/>
        <lane id=":128581932_0_1" index="1" disallow="tram rail_urban rail rail_electric rail_fast ship" speed="20.84" length="0.32" shape="8182.18,13473.93 8182.36,13473.66"/>
        <lane id=":128581932_0_2" index="2" disallow="tram rail_urban rail rail_electric rail_fast ship" speed="20.84" length="0.32" shape="8184.81,13475.75 8185.10,13475.30"/>
    </edge>
    <edge id=":128581937_0" function="internal">
        <lane id=":128581937_0_0" index="0" disallow="tram rail_urban rail rail_electric rail_fast ship" speed="18.05" length="5.47" shape="8187.49,13448.10 8187.62,13442.75"/>
        <lane id=":128581937_0_1" index="1" disallow="tram rail_urban rail rail_electric rail_fast ship" speed="18.05" length="5.47" shape="8190.67,13448.42 8190.82,13442.83"/>
    </edge>
    <edge id=":128581937_2" function="internal">
        <lane id=":128581937_2_0" index="0" disallow="tram rail_urban rail rail_electric rail_fast ship" speed="18.05" length="6.60" shape="8193.85,13448.74 8193.99,13446.78 8194.08,13445.42 8194.35,13444.11 8195.05,13442.30"/>
    </edge>
    <edge id=":128583033_0" function="internal">
        <lane id=":128583033_0_0" index="0" disallow="tram rail_urban rail rail_electric rail_fast ship" speed="22.22" length="0.10" shape="8166.44,13340.02 8166.44,13340.02"/>
    </edge>
    <edge id=":128583756_0" function="internal">
        <lane id=":128583756_0_0" index="0" allow="private emergency authority army vip passenger hov taxi bus coach delivery truck trailer motorcycle evehicle custom1 custom2" speed="22.22" length="3.24" shape="8306.95,13304.41 8307.82,13304.82 8308.43,13305.07 8309.05,13305.28 8309.97,13305.56"/>
    </edge>
    <edge id=":128583756_1" function="internal">
        <lane id=":128583756_1_0" index="0" allow="private emergency authority army vip passenger hov taxi bus coach delivery truck trailer motorcycle evehicle custom1 custom2" speed="22.22" length="3.28" shape="8305.89,13307.83 8309.08,13308.63"/>
    </edge>
    <edge id=":128583855_0" function="internal">
        <lane id=":128583855_0_0" index="0" allow="private emergency authority army vip passenger hov taxi bus coach delivery truck trailer motorcycle evehicle custom1 custom2" speed="22.22" length="18.10" shape="8364.41,13308.48 8369.65,13309.14 8373.24,13309.77 8376.83,13310.03 8382.03,13309.58"/>
        <lane id=":128583855_0_1" index="1" allow="private emergency authority army vip passenger hov taxi bus coach delivery truck trailer motorcycle evehicle custom1 custom2" speed="22.22" length="18.10" shape="8364.15,13311.67 8369.59,13312.34 8373.34,13312.98 8377.07,13313.23 8382.48,13312.74"/>
    </edge>
    <edge id=":128583855_2" function="internal">
        <lane id=":128583855_2_0" index="0" allow="private emergency authority army vip passenger hov taxi bus coach delivery truck trailer motorcycle evehicle custom1 custom2" speed="22.22" length="18.82" shape="8364.24,13315.18 8369.77,13314.95 8373.59,13315.56 8377.41,13316.18 8382.93,13315.91"/>
        <lane id=":128583855_2_1" index="1" allow="private emergency authority army vip passenger hov taxi bus coach delivery truck trailer motorcycle evehicle custom1 custom2" speed="22.22" length="18.82" shape="8364.68,13318.35 8370.21,13318.11 8374.03,13318.73 8377.86,13319.34 8383.38,13319.08"/>
        <lane id=":128583855_2_2" index="2" allow="private emergency authority army vip passenger hov taxi bus coach delivery truck trailer motorcycle evehicle custom1 custom2" speed="22.22" length="18.82" shape="8365.11,13321.52 8370.65,13321.28 8374.48,13321.90 8378.30,13322.51 8383.84,13322.25"/>
    </edge>
    <edge id=":128586501_0" function="internal">
        <lane id=":128586501_0_0" index="0" disallow="tram rail_urban rail rail_electric rail_fast ship" speed="22.22" length="4.82" shape="8235.77,13403.46 8236.80,13402.46 8237.52,13401.80 8238.31,13401.22 8239.53,13400.49"/>
    </edge>
    <edge id=":128586501_1" function="internal">
        <lane id=":128586501_1_0" index="0" allow="private emergency authority army vip passenger hov taxi bus coach delivery truck trailer motorcycle evehicle custom1 custom2" speed="10.74" length="3.70" shape="8238.41,13405.73 8239.05,13404.84 8239.56,13404.28 8240.17,13403.83 8241.11,13403.28"/>
    </edge>
    <edge id=":128587416_0" function="internal">
        <lane id=":128587416_0_0" index="0" allow="private emergency authority army vip passenger hov taxi bus coach delivery truck trailer motorcycle evehicle custom1 custom2" speed="22.22" length="3.32" shape="8380.47,13363.57 8379.50,13363.72 8378.84,13363.86 8378.19,13364.06 8377.27,13364.39"/>
    </edge>
    <edge id=":128587416_1" function="internal">
        <lane id=":128587416_1_0" index="0" allow="private emergency authority army vip passenger hov taxi bus coach delivery truck trailer motorcycle evehicle custom1 custom2" speed="22.22" length="3.35" shape="8380.00,13360.40 8376.69,13360.91"/>
    </edge>
    <edge id=":128588858_0" function="internal">
        <lane id=":128588858_0_0" index="0" allow="private emergency authority army vip passenger hov taxi bus coach delivery truck trailer motorcycle evehicle custom1 custom2" speed="18.05" length="4.29" shape="8275.34,13448.98 8274.55,13449.98 8273.99,13450.65 8273.38,13451.27 8272.43,13452.12"/>
    </edge>
    <edge id=":128588858_1" function="internal">
        <lane id=":128588858_1_0" index="0" disallow="tram rail_urban rail rail_electric rail_fast ship" speed="17.37" length="3.51" shape="8272.55,13447.02 8272.01,13447.91 8271.60,13448.50 8271.10,13449.01 8270.33,13449.70"/>
    </edge>
    <edge id=":128607704_0" function="internal">
        <lane id=":128607704_0_0" index="0" allow="private emergency authority army vip passenger hov taxi bus coach delivery truck trailer motorcycle evehicle custom1 custom2" speed="25.00" length="6.91" shape="8282.52,13392.26 8282.52,13394.29 8282.85,13395.71 8283.08,13397.11 8282.79,13399.09"/>
    </edge>
    <edge id=":13798158-AddedOffRampNode_0" function="internal">
        <lane id=":13798158-AddedOffRampNode_0_0" index="0" allow="private emergency authority army vip passenger hov taxi bus coach delivery truck trailer motorcycle evehicle custom1 custom2" speed="22.22" length="8.40" shape="8479.46,13338.11 8477.35,13339.47 8476.32,13341.06 8475.28,13342.64 8473.17,13344.01"/>
        <lane id=":13798158-AddedOffRampNode_0_1" index="1" allow="private emergency authority army vip passenger hov taxi bus coach delivery truck trailer motorcycle evehicle custom1 custom2" speed="22.22" length="8.40" shape="8479.46,13338.11 8472.01,13341.02"/>
    </edge>
    <edge id=":13798291-AddedOnRampNode_0" function="internal">
        <lane id=":13798291-AddedOnRampNode_0_0" index="0" disallow="tram rail_urban rail rail_electric rail_fast ship" speed="13.89" length="7.99" shape="8189.13,13495.35 8186.97,13496.34 8185.49,13497.01 8184.06,13497.77 8182.05,13499.02"/>
    </edge>
    <edge id=":1999553112_0" function="internal">
        <lane id=":1999553112_0_0" index="0" disallow="tram rail_urban rail rail_electric rail_fast ship" speed="27.78" length="0.71" shape="8230.13,13281.37 8230.08,13281.28 8230.04,13281.21 8229.99,13281.16 8229.92,13281.08"/>
        <lane id=":1999553112_0_1" index="1" disallow="tram rail_urban rail rail_electric rail_fast ship" speed="27.78" length="0.71" shape="8232.91,13279.77 8232.75,13279.50 8232.63,13279.32 8232.49,13279.15 8232.28,13278.91"/>
    </edge>
    <edge id=":2354389960_0" function="internal">
        <lane id=":2354389960_0_0" index="0" disallow="tram rail_urban rail rail_electric rail_fast ship" speed="25.00" length="7.93" shape="8289.09,13402.83 8288.87,13405.16 8289.07,13406.79 8289.22,13408.42 8288.85,13410.71"/>
    </edge>
    <edge id=":2490198479_0" function="internal">
        <lane id=":2490198479_0_0" index="0" disallow="tram rail_urban rail rail_electric rail_fast ship" speed="27.78" length="0.30" shape="8147.66,13143.92 8147.50,13143.66"/>
        <lane id=":2490198479_0_1" index="1" disallow="tram rail_urban rail rail_electric rail_fast ship" speed="27.78" length="0.30" shape="8150.40,13142.26 8150.24,13142.00"/>
    </edge>
    <edge id=":2490198483_0" function="internal">
        <lane id=":2490198483_0_0" index="0" disallow="tram rail_urban rail rail_electric rail_fast ship" speed="22.22" length="2.65" shape="8172.71,13351.59 8172.41,13350.88 8172.08,13350.45 8171.72,13350.03 8171.30,13349.37"/>
    </edge>
    <edge id=":2490198483_1" function="internal">
        <lane id=":2490198483_1_0" index="0" disallow="moped bicycle tram rail_urban rail rail_electric rail_fast ship" speed="10.65" length="3.69" shape="8175.76,13350.59 8175.43,13349.55 8175.29,13348.81 8175.30,13348.05 8175.42,13346.97"/>
    </edge>
    <edge id=":2490198491_0" function="internal">
        <lane id=":2490198491_0_0" index="0" disallow="tram rail_urban rail rail_electric rail_fast ship" speed="20.84" length="0.38" shape="8164.52,13493.89 8164.86,13493.36"/>
        <lane id=":2490198491_0_1" index="1" disallow="tram rail_urban rail rail_electric rail_fast ship" speed="20.84" length="0.38" shape="8167.29,13495.50 8167.49,13495.18"/>
        <lane id=":2490198491_0_2" index="2" disallow="tram rail_urban rail rail_electric rail_fast ship" speed="20.84" length="0.38" shape="8170.05,13497.11 8170.12,13497.00"/>
    </edge>
    <edge id=":26015897_0" function="internal">
        <lane id=":26015897_0_0" index="0" allow="private emergency authority army vip passenger hov taxi bus coach delivery truck trailer motorcycle evehicle custom1 custom2" speed="22.22" length="1.66" shape="8595.95,13307.82 8595.71,13309.42"/>
        <lane id=":26015897_0_1" index="1" allow="private emergency authority army vip passenger hov taxi bus coach delivery truck trailer motorcycle evehicle custom1 custom2" speed="22.22" length="1.66" shape="8595.92,13304.62 8595.59,13306.23"/>
        <lane id=":26015897_0_2" index="2" allow="private emergency authority army vip passenger hov taxi bus coach delivery truck trailer motorcycle evehicle custom1 custom2" speed="22.22" length="1.66" shape="8595.89,13301.42 8595.47,13303.03"/>
        <lane id=":26015897_0_3" index="3" allow="private emergency authority army vip passenger hov taxi bus coach delivery truck trailer motorcycle evehicle custom1 custom2" speed="22.22" length="1.66" shape="8595.86,13298.22 8595.35,13299.83"/>
    </edge>
    <edge id=":3092764696_0" function="internal">
        <lane id=":3092764696_0_0" index="0" allow="private emergency authority army vip passenger hov taxi bus coach delivery truck trailer motorcycle evehicle custom1 custom2" speed="22.22" length="3.16" shape="7997.83,13482.63 7998.51,13481.98 7998.96,13481.52 7999.39,13481.05 8000.00,13480.33"/>
    </edge>
    <edge id=":3092764696_1" function="internal">
        <lane id=":3092764696_1_0" index="0" allow="private emergency authority army vip passenger hov taxi bus coach delivery truck trailer motorcycle evehicle custom1 custom2" speed="22.22" length="3.22" shape="8000.04,13484.94 8002.38,13482.71"/>
        <lane id=":3092764696_1_1" index="1" allow="private emergency authority army vip passenger hov taxi bus coach delivery truck trailer motorcycle evehicle custom1 custom2" speed="22.22" length="3.22" shape="8002.26,13487.26 8004.58,13485.03"/>
        <lane id=":3092764696_1_2" index="2" allow="private emergency authority army vip passenger hov taxi bus coach delivery truck trailer motorcycle evehicle custom1 custom2" speed="22.22" length="3.22" shape="8004.47,13489.57 8006.78,13487.35"/>
    </edge>
    <edge id=":3092764704_0" function="internal">
        <lane id=":3092764704_0_0" index="0" allow="private emergency authority army vip passenger hov taxi bus coach delivery truck trailer motorcycle evehicle custom1 custom2" speed="22.22" length="3.24" shape="8571.05,13310.37 8570.09,13310.41 8569.43,13310.46 8568.78,13310.56 8567.84,13310.74"/>
    </edge>
    <edge id=":3092764704_1" function="internal">
        <lane id=":3092764704_1_0" index="0" allow="private emergency authority army vip passenger hov taxi bus coach delivery truck trailer motorcycle evehicle custom1 custom2" speed="22.22" length="3.78" shape="8570.93,13307.17 8567.37,13307.44"/>
        <lane id=":3092764704_1_1" index="1" allow="private emergency authority army vip passenger hov taxi bus coach delivery truck trailer motorcycle evehicle custom1 custom2" speed="22.22" length="3.78" shape="8570.81,13303.97 8567.04,13304.26"/>
        <lane id=":3092764704_1_2" index="2" allow="private emergency authority army vip passenger hov taxi bus coach delivery truck trailer motorcycle evehicle custom1 custom2" speed="22.22" length="3.78" shape="8570.69,13300.77 8566.70,13301.08"/>
    </edge>
    <edge id=":4161788736_0" function="internal">
        <lane id=":4161788736_0_0" index="0" allow="private emergency authority army vip passenger hov taxi bus coach delivery truck trailer motorcycle evehicle custom1 custom2" speed="22.22" length="1.60" shape="7974.26,13507.40 7973.16,13506.24"/>
        <lane id=":4161788736_0_1" index="1" allow="private emergency authority army vip passenger hov taxi bus coach delivery truck trailer motorcycle evehicle custom1 custom2" speed="22.22" length="1.60" shape="7976.48,13509.71 7975.37,13508.55"/>
        <lane id=":4161788736_0_2" index="2" allow="private emergency authority army vip passenger hov taxi bus coach delivery truck trailer motorcycle evehicle custom1 custom2" speed="22.22" length="1.60" shape="7978.69,13512.02 7977.59,13510.87"/>
        <lane id=":4161788736_0_3" index="3" allow="private emergency authority army vip passenger hov taxi bus coach delivery truck trailer motorcycle evehicle custom1 custom2" speed="22.22" length="1.60" shape="7980.90,13514.34 7979.80,13513.18"/>
    </edge>
    <edge id=":4731603469_0" function="internal">
        <lane id=":4731603469_0_0" index="0" disallow="tram rail_urban rail rail_electric rail_fast ship" speed="25.00" length="5.74" shape="8271.65,13356.65 8271.40,13355.11 8271.31,13354.01 8271.08,13352.97 8270.42,13351.58"/>
        <lane id=":4731603469_0_1" index="1" disallow="tram rail_urban rail rail_electric rail_fast ship" speed="25.00" length="5.74" shape="8274.77,13355.95 8274.45,13354.12 8274.30,13352.84 8273.99,13351.62 8273.20,13349.99"/>
    </edge>
    <edge id=":5291597602_0" function="internal">
        <lane id=":5291597602_0_0" index="0" disallow="tram rail_urban rail rail_electric rail_fast ship" speed="27.78" length="7.96" shape="8281.98,13355.96 8282.75,13358.19 8283.62,13359.61 8284.43,13361.04 8285.05,13363.30"/>
        <lane id=":5291597602_0_1" index="1" disallow="tram rail_urban rail rail_electric rail_fast ship" speed="27.78" length="7.96" shape="8281.98,13355.96 8282.25,13358.25 8282.04,13359.86 8281.77,13361.48 8281.89,13363.81"/>
    </edge>
    <edge id=":5291598235_0" function="internal">
        <lane id=":5291598235_0_0" index="0" allow="private emergency authority army vip passenger hov taxi bus coach delivery truck trailer motorcycle evehicle custom1 custom2" speed="25.00" length="5.01" shape="8177.57,13167.23 8178.28,13168.51 8178.62,13169.47 8178.85,13170.48 8179.21,13171.92"/>
    </edge>
    <edge id=":5291598235_1" function="internal">
        <lane id=":5291598235_1_0" index="0" disallow="tram rail_urban rail rail_electric rail_fast ship" speed="27.78" length="3.73" shape="8174.85,13168.92 8177.02,13172.52"/>
        <lane id=":5291598235_1_1" index="1" disallow="tram rail_urban rail rail_electric rail_fast ship" speed="27.78" length="3.73" shape="8172.13,13170.61 8173.81,13173.39"/>
    </edge>
    <edge id=":5291598240_0" function="internal">
        <lane id=":5291598240_0_0" index="0" disallow="tram rail_urban rail rail_electric rail_fast ship" speed="26.41" length="9.74" shape="8281.43,13345.63 8283.08,13348.10 8284.36,13349.74 8285.35,13351.49 8286.12,13354.29"/>
        <lane id=":5291598240_0_1" index="1" disallow="tram rail_urban rail rail_electric rail_fast ship" speed="25.80" length="9.74" shape="8281.43,13345.63 8282.54,13348.14 8282.76,13350.05 8282.70,13352.06 8282.98,13354.88"/>
    </edge>
    <edge id=":5291598240_2" function="internal">
        <lane id=":5291598240_2_0" index="0" disallow="tram rail_urban rail rail_electric rail_fast ship" speed="27.78" length="8.51" shape="8278.66,13347.24 8279.91,13349.43 8280.66,13351.00 8281.18,13352.65 8281.78,13355.10"/>
    </edge>
    <edge id=":5291598263_0" function="internal">
        <lane id=":5291598263_0_0" index="0" allow="private emergency authority army vip passenger hov taxi bus coach delivery truck trailer motorcycle evehicle custom1 custom2" speed="22.22" length="0.10" shape="8243.90,13295.71 8243.90,13295.71"/>
    </edge>
    <edge id=":cluster_4731603473_5291598250_0" function="internal">
        <lane id=":cluster_4731603473_5291598250_0_0" index="0" disallow="tram rail_urban rail rail_electric rail_fast ship" speed="27.78" length="13.90" shape="8227.04,13277.95 8224.27,13274.88 8222.50,13272.66 8220.97,13270.27 8218.92,13266.67"/>
        <lane id=":cluster_4731603473_5291598250_0_1" index="1" disallow="tram rail_urban rail rail_electric rail_fast ship" speed="27.78" length="13.90" shape="8229.82,13276.25 8227.06,13273.21 8225.29,13271.02 8223.75,13268.66 8221.71,13265.10"/>
    </edge>
    <edge id=":cluster_4731603473_5291598250_2" function="internal">
        <lane id=":cluster_4731603473_5291598250_2_0" index="0" disallow="tram rail_urban rail rail_electric rail_fast ship" speed="27.78" length="13.62" shape="8229.29,13260.82 8231.54,13264.13 8233.40,13266.19 8235.26,13268.25 8237.55,13271.55"/>