<?xml version="1.0" encoding="UTF-8"?>

<!-- generated on 2023-07-06 15:49:41 by Eclipse SUMO netedit Version 1.15.0
<configuration xmlns:xsi="http://www.w3.org/2001/XMLSchema-instance" xsi:noNamespaceSchemaLocation="http://sumo.dlr.de/xsd/netconvertConfiguration.xsd">

    <input>
        <sumo-net-file value="C:\Users\Paulinho\Desktop\Master-Thesis\nodes\no_rotunda_atlantico.net.xml"/>
    </input>

    <output>
        <output-file value="C:\Users\Paulinho\Desktop\Master-Thesis\nodes\no_rotunda_atlantico.net.xml"/>
        <output.street-names value="true"/>
    </output>

    <processing>
        <geometry.min-radius.fix.railways value="false"/>
        <geometry.max-grade.fix value="false"/>
        <offset.disable-normalization value="true"/>
        <lefthand value="0"/>
    </processing>

    <junctions>
        <no-turnarounds value="true"/>
        <junctions.corner-detail value="5"/>
        <junctions.limit-turn-speed value="5.50"/>
        <rectangular-lane-cut value="0"/>
    </junctions>

    <pedestrian>
        <walkingareas value="0"/>
    </pedestrian>

    <netedit>
        <additional-files value="C:\Users\Paulinho\Desktop\Master-Thesis\nodes\no_rotunda_atlantico_poi.xml"/>
    </netedit>

</configuration>
-->

<net version="1.9" junctionCornerDetail="5" limitTurnSpeed="5.50" xmlns:xsi="http://www.w3.org/2001/XMLSchema-instance" xsi:noNamespaceSchemaLocation="http://sumo.dlr.de/xsd/net_file.xsd">

    <location netOffset="-524914.43,-4544541.91" convBoundary="7726.62,8020.51,8631.54,8512.58" origBoundary="-8.702913,41.051318,-8.236192,41.279522" projParameter="+proj=utm +zone=29 +ellps=WGS84 +datum=WGS84 +units=m +no_defs"/>

    <type id="highway.bridleway" priority="1" numLanes="1" speed="2.78" allow="pedestrian" oneway="1" width="2.00"/>
    <type id="highway.bus_guideway" priority="1" numLanes="1" speed="27.78" allow="bus" oneway="1"/>
    <type id="highway.cycleway" priority="1" numLanes="1" speed="5.56" allow="bicycle" oneway="0" width="1.00"/>
    <type id="highway.footway" priority="1" numLanes="1" speed="2.78" allow="pedestrian" oneway="1" width="2.00"/>
    <type id="highway.ford" priority="1" numLanes="1" speed="2.78" allow="army" oneway="0"/>
    <type id="highway.living_street" priority="2" numLanes="1" speed="2.78" disallow="tram rail_urban rail rail_electric rail_fast ship" oneway="0"/>
    <type id="highway.motorway" priority="14" numLanes="2" speed="39.44" allow="private emergency authority army vip passenger hov taxi bus coach delivery truck trailer motorcycle evehicle custom1 custom2" oneway="1"/>
    <type id="highway.motorway_link" priority="9" numLanes="1" speed="22.22" allow="private emergency authority army vip passenger hov taxi bus coach delivery truck trailer motorcycle evehicle custom1 custom2" oneway="1"/>
    <type id="highway.path" priority="1" numLanes="1" speed="5.56" allow="pedestrian bicycle" oneway="0" width="2.00"/>
    <type id="highway.pedestrian" priority="1" numLanes="1" speed="2.78" allow="pedestrian" oneway="1" width="2.00"/>
    <type id="highway.primary" priority="12" numLanes="2" speed="27.78" disallow="tram rail_urban rail rail_electric rail_fast ship" oneway="0"/>
    <type id="highway.primary_link" priority="7" numLanes="1" speed="22.22" disallow="tram rail_urban rail rail_electric rail_fast ship" oneway="0"/>
    <type id="highway.raceway" priority="15" numLanes="2" speed="83.33" allow="vip" oneway="0"/>
    <type id="highway.residential" priority="3" numLanes="1" speed="13.89" disallow="tram rail_urban rail rail_electric rail_fast ship" oneway="0"/>
    <type id="highway.secondary" priority="11" numLanes="1" speed="27.78" disallow="tram rail_urban rail rail_electric rail_fast ship" oneway="0"/>
    <type id="highway.secondary_link" priority="6" numLanes="1" speed="22.22" disallow="tram rail_urban rail rail_electric rail_fast ship" oneway="0"/>
    <type id="highway.service" priority="1" numLanes="1" speed="5.56" allow="pedestrian delivery bicycle" oneway="0"/>
    <type id="highway.stairs" priority="1" numLanes="1" speed="1.39" allow="pedestrian" oneway="1" width="2.00"/>
    <type id="highway.step" priority="1" numLanes="1" speed="1.39" allow="pedestrian" oneway="1" width="2.00"/>
    <type id="highway.steps" priority="1" numLanes="1" speed="1.39" allow="pedestrian" oneway="1" width="2.00"/>
    <type id="highway.tertiary" priority="10" numLanes="1" speed="22.22" disallow="tram rail_urban rail rail_electric rail_fast ship" oneway="0"/>
    <type id="highway.tertiary_link" priority="5" numLanes="1" speed="22.22" disallow="tram rail_urban rail rail_electric rail_fast ship" oneway="0"/>
    <type id="highway.track" priority="1" numLanes="1" speed="5.56" allow="pedestrian motorcycle moped bicycle" oneway="0"/>
    <type id="highway.trunk" priority="13" numLanes="2" speed="27.78" disallow="pedestrian bicycle tram rail_urban rail rail_electric rail_fast ship" oneway="0"/>
    <type id="highway.trunk_link" priority="8" numLanes="1" speed="22.22" disallow="pedestrian bicycle tram rail_urban rail rail_electric rail_fast ship" oneway="0"/>
    <type id="highway.unclassified" priority="4" numLanes="1" speed="13.89" disallow="tram rail_urban rail rail_electric rail_fast ship" oneway="0"/>
    <type id="highway.unsurfaced" priority="1" numLanes="1" speed="8.33" disallow="tram rail_urban rail rail_electric rail_fast ship" oneway="0"/>
    <type id="railway.highspeed" priority="21" numLanes="1" speed="69.44" allow="rail_fast" oneway="1"/>
    <type id="railway.light_rail" priority="19" numLanes="1" speed="27.78" allow="rail_urban" oneway="1"/>
    <type id="railway.preserved" priority="16" numLanes="1" speed="27.78" allow="rail" oneway="1"/>
    <type id="railway.rail" priority="20" numLanes="1" speed="44.44" allow="rail" oneway="1"/>
    <type id="railway.subway" priority="18" numLanes="1" speed="27.78" allow="rail_urban" oneway="1"/>
    <type id="railway.tram" priority="17" numLanes="1" speed="13.89" allow="tram" oneway="1"/>

    <edge id=":1103406307_0" function="internal">
        <lane id=":1103406307_0_0" index="0" allow="private emergency authority army vip passenger hov taxi bus coach delivery truck trailer motorcycle evehicle custom1 custom2" speed="22.22" length="3.05" shape="7814.99,8084.33 7812.30,8082.88"/>
    </edge>
    <edge id=":1103406307_1" function="internal">
        <lane id=":1103406307_1_0" index="0" allow="private emergency authority army vip passenger hov taxi bus coach delivery truck trailer motorcycle evehicle custom1 custom2" speed="22.22" length="2.98" shape="7816.46,8081.43 7813.79,8080.05"/>
        <lane id=":1103406307_1_1" index="1" allow="private emergency authority army vip passenger hov taxi bus coach delivery truck trailer motorcycle evehicle custom1 custom2" speed="22.22" length="2.98" shape="7817.91,8078.58 7815.28,8077.22"/>
    </edge>
    <edge id=":1103406316_0" function="internal">
        <lane id=":1103406316_0_0" index="0" allow="private emergency authority army vip passenger hov taxi bus coach delivery truck trailer motorcycle evehicle custom1 custom2" speed="22.22" length="2.95" shape="7823.12,8062.81 7825.70,8064.24"/>
    </edge>
    <edge id=":1103406316_1" function="internal">
        <lane id=":1103406316_1_0" index="0" allow="private emergency authority army vip passenger hov taxi bus coach delivery truck trailer motorcycle evehicle custom1 custom2" speed="22.22" length="2.67" shape="7821.65,8065.66 7822.38,8066.03 7822.88,8066.30 7823.36,8066.59 7824.05,8067.03"/>
        <lane id=":1103406316_1_1" index="1" allow="private emergency authority army vip passenger hov taxi bus coach delivery truck trailer motorcycle evehicle custom1 custom2" speed="22.22" length="2.67" shape="7820.19,8068.50 7820.87,8068.85 7821.33,8069.10 7821.77,8069.37 7822.42,8069.79"/>
    </edge>
    <edge id=":1103406320_0" function="internal">
        <lane id=":1103406320_0_0" index="0" allow="private emergency authority army vip passenger hov taxi bus coach delivery truck trailer motorcycle evehicle custom1 custom2" speed="17.98" length="11.07" shape="8021.34,8161.38 8022.91,8164.29 8024.36,8166.14 8026.10,8167.66 8028.55,8169.55"/>
    </edge>
    <edge id=":1103406320_1" function="internal">
        <lane id=":1103406320_1_0" index="0" disallow="tram rail_urban rail rail_electric rail_fast ship" speed="27.78" length="9.97" shape="8021.34,8161.38 8022.48,8164.21 8022.86,8166.29 8022.98,8168.45 8023.31,8171.54"/>
        <lane id=":1103406320_1_1" index="1" disallow="tram rail_urban rail rail_electric rail_fast ship" speed="27.78" length="9.97" shape="8018.45,8162.76 8019.47,8165.35 8019.79,8167.24 8019.86,8169.22 8020.15,8172.03"/>
    </edge>
    <edge id=":1103406328_0" function="internal">
        <lane id=":1103406328_0_0" index="0" allow="private emergency authority army vip passenger hov taxi bus coach delivery truck trailer motorcycle evehicle custom1 custom2" speed="16.64" length="10.74" shape="7967.91,8179.56 7966.59,8176.66 7965.33,8174.80 7963.72,8173.25 7961.37,8171.27"/>
    </edge>
    <edge id=":1103406328_1" function="internal">
        <lane id=":1103406328_1_0" index="0" disallow="tram rail_urban rail rail_electric rail_fast ship" speed="27.78" length="10.61" shape="7967.91,8179.56 7966.92,8176.46 7966.71,8174.22 7966.84,8171.91 7966.84,8168.59"/>
        <lane id=":1103406328_1_1" index="1" disallow="tram rail_urban rail rail_electric rail_fast ship" speed="27.78" length="10.61" shape="7970.88,8178.36 7970.00,8175.56 7969.86,8173.53 7970.02,8171.43 7970.04,8168.43"/>
    </edge>
    <edge id=":1103406385_0" function="internal">
        <lane id=":1103406385_0_0" index="0" allow="private emergency authority army vip passenger hov taxi bus coach delivery truck trailer motorcycle evehicle custom1 custom2" speed="8.43" length="6.31" shape="8012.80,8197.67 8011.11,8196.85 8009.85,8196.35 8008.58,8196.28 8006.84,8196.75"/>
    </edge>
    <edge id=":1103406385_1" function="internal">
        <lane id=":1103406385_1_0" index="0" disallow="tram rail_urban rail rail_electric rail_fast ship" speed="27.78" length="6.27" shape="8012.46,8193.29 8010.85,8194.43 8009.78,8195.27 8008.64,8195.98 8006.84,8196.75"/>
        <lane id=":1103406385_1_1" index="1" disallow="tram rail_urban rail rail_electric rail_fast ship" speed="27.78" length="6.27" shape="8010.69,8190.62 8009.27,8191.64 8008.33,8192.41 8007.32,8193.06 8005.73,8193.75"/>
    </edge>
    <edge id=":1103406407_0" function="internal">
        <lane id=":1103406407_0_0" index="0" allow="private emergency authority army vip passenger hov taxi bus coach delivery truck trailer motorcycle evehicle custom1 custom2" speed="25.00" length="18.64" shape="7978.32,8141.47 7981.87,8142.43 7985.84,8142.82 7990.67,8142.94 7996.81,8143.08"/>
    </edge>
    <edge id=":1103406407_1" function="internal">
        <lane id=":1103406407_1_0" index="0" disallow="tram rail_urban rail rail_electric rail_fast ship" speed="27.78" length="15.74" shape="7981.06,8146.44 7985.66,8144.94 7988.82,8143.82 7992.05,8143.17 7996.81,8143.08"/>
        <lane id=":1103406407_1_1" index="1" disallow="tram rail_urban rail rail_electric rail_fast ship" speed="27.78" length="15.74" shape="7981.94,8149.51 7986.25,8148.09 7989.21,8147.02 7992.23,8146.38 7996.70,8146.28"/>
    </edge>
    <edge id=":1103406484_0" function="internal">
        <lane id=":1103406484_0_0" index="0" allow="private emergency authority army vip passenger hov taxi bus coach delivery truck trailer motorcycle evehicle custom1 custom2" speed="18.05" length="0.10" shape="8120.68,8225.26 8120.68,8225.26"/>
    </edge>
    <edge id=":1103406500_0" function="internal">
        <lane id=":1103406500_0_0" index="0" allow="private emergency authority army vip passenger hov taxi bus coach delivery truck trailer motorcycle evehicle custom1 custom2" speed="30.83" length="0.29" shape="7837.09,8091.91 7836.86,8091.79"/>
        <lane id=":1103406500_0_1" index="1" allow="private emergency authority army vip passenger hov taxi bus coach delivery truck trailer motorcycle evehicle custom1 custom2" speed="30.83" length="0.29" shape="7838.58,8089.08 7838.31,8088.94"/>
    </edge>
    <edge id=":1131291439_0" function="internal">
        <lane id=":1131291439_0_0" index="0" allow="private emergency authority army vip passenger hov taxi bus coach delivery truck trailer motorcycle evehicle custom1 custom2" speed="22.22" length="3.03" shape="8395.48,8388.42 8392.66,8387.31"/>
    </edge>
    <edge id=":1131291439_1" function="internal">
        <lane id=":1131291439_1_0" index="0" allow="private emergency authority army vip passenger hov taxi bus coach delivery truck trailer motorcycle evehicle custom1 custom2" speed="22.22" length="3.07" shape="8396.67,8385.45 8393.79,8384.40"/>
    </edge>
    <edge id=":1131291593_0" function="internal">
        <lane id=":1131291593_0_0" index="0" allow="private emergency authority army vip passenger hov taxi bus coach delivery truck trailer motorcycle evehicle custom1 custom2" speed="21.76" length="3.47" shape="8341.23,8313.38 8342.12,8313.90 8342.76,8314.21 8343.43,8314.43 8344.43,8314.67"/>
    </edge>
    <edge id=":1131291593_1" function="internal">
        <lane id=":1131291593_1_0" index="0" allow="private emergency authority army vip passenger hov taxi bus coach delivery truck trailer motorcycle evehicle custom1 custom2" speed="22.22" length="3.75" shape="8339.60,8316.13 8342.91,8317.90"/>
    </edge>
    <edge id=":1131291653_0" function="internal">
        <lane id=":1131291653_0_0" index="0" allow="private emergency authority army vip passenger hov taxi bus coach delivery truck trailer motorcycle evehicle custom1 custom2" speed="22.22" length="5.04" shape="8340.43,8495.45 8340.58,8496.94 8340.68,8497.96 8340.86,8498.97 8341.21,8500.42"/>
    </edge>
    <edge id=":1131291653_1" function="internal">
        <lane id=":1131291653_1_0" index="0" allow="private emergency authority army vip passenger hov taxi bus coach delivery truck trailer motorcycle evehicle custom1 custom2" speed="22.22" length="5.48" shape="8337.23,8495.82 8337.41,8497.44 8337.54,8498.55 8337.73,8499.64 8338.11,8501.22"/>
    </edge>
    <edge id=":1131291729_0" function="internal">
        <lane id=":1131291729_0_0" index="0" allow="private emergency authority army vip passenger hov taxi bus coach delivery truck trailer motorcycle evehicle custom1 custom2" speed="22.22" length="3.86" shape="8289.83,8310.43 8292.90,8308.08"/>
    </edge>
    <edge id=":1131291729_1" function="internal">
        <lane id=":1131291729_1_0" index="0" allow="private emergency authority army vip passenger hov taxi bus coach delivery truck trailer motorcycle evehicle custom1 custom2" speed="9.41" length="3.78" shape="8292.53,8313.54 8293.00,8312.53 8293.40,8311.87 8293.95,8311.32 8294.83,8310.63"/>
    </edge>
    <edge id=":1131291780_0" function="internal">
        <lane id=":1131291780_0_0" index="0" allow="private emergency authority army vip passenger hov taxi bus coach delivery truck trailer motorcycle evehicle custom1 custom2" speed="9.52" length="6.31" shape="8352.90,8387.44 8351.10,8386.92 8349.79,8386.63 8348.52,8386.72 8346.80,8387.31"/>
    </edge>
    <edge id=":1131291780_1" function="internal">
        <lane id=":1131291780_1_0" index="0" allow="private emergency authority army vip passenger hov taxi bus coach delivery truck trailer motorcycle evehicle custom1 custom2" speed="22.22" length="8.86" shape="8352.90,8387.44 8350.52,8386.40 8349.08,8385.17 8347.62,8384.06 8345.18,8383.37"/>
    </edge>
    <edge id=":1131291780_2" function="internal">
        <lane id=":1131291780_2_0" index="0" allow="private emergency authority army vip passenger hov taxi bus coach delivery truck trailer motorcycle evehicle custom1 custom2" speed="22.22" length="8.68" shape="8353.72,8384.34 8351.34,8383.49 8349.88,8382.51 8348.52,8381.32 8346.43,8379.80"/>
    </edge>
    <edge id=":1131291949_0" function="internal">
        <lane id=":1131291949_0_0" index="0" allow="private emergency authority army vip passenger hov taxi bus coach delivery truck trailer motorcycle evehicle custom1 custom2" speed="17.76" length="5.90" shape="8407.26,8384.91 8406.27,8386.35 8405.54,8387.33 8404.67,8388.15 8403.27,8389.18"/>
    </edge>
    <edge id=":1131291949_1" function="internal">
        <lane id=":1131291949_1_0" index="0" allow="private emergency authority army vip passenger hov taxi bus coach delivery truck trailer motorcycle evehicle custom1 custom2" speed="7.18" length="4.47" shape="8403.83,8382.95 8403.54,8384.23 8403.16,8385.08 8402.53,8385.76 8401.47,8386.52"/>
    </edge>
    <edge id=":1131291973_0" function="internal">
        <lane id=":1131291973_0_0" index="0" allow="private emergency authority army vip passenger hov taxi bus coach delivery truck trailer motorcycle evehicle custom1 custom2" speed="22.22" length="34.11" shape="8247.47,8322.04 8240.87,8317.32 8233.67,8312.16 8226.35,8307.19 8219.39,8303.06"/>
        <lane id=":1131291973_0_1" index="1" allow="private emergency authority army vip passenger hov taxi bus coach delivery truck trailer motorcycle evehicle custom1 custom2" speed="22.22" length="34.11" shape="8249.30,8319.41 8242.64,8314.66 8235.33,8309.43 8227.90,8304.40 8220.89,8300.23"/>
    </edge>
    <edge id=":1131291973_2" function="internal">
        <lane id=":1131291973_2_0" index="0" allow="private emergency authority army vip passenger hov taxi bus coach delivery truck trailer motorcycle evehicle custom1 custom2" speed="22.22" length="34.30" shape="8251.22,8316.24 8220.89,8300.23"/>
    </edge>
    <edge id=":1131291992_0" function="internal">
        <lane id=":1131291992_0_0" index="0" allow="private emergency authority army vip passenger hov taxi bus coach delivery truck trailer motorcycle evehicle custom1 custom2" speed="13.89" length="32.21" shape="8266.88,8300.60 8272.82,8303.05 8281.92,8306.32 8291.07,8309.48 8297.16,8311.58"/>
    </edge>
    <edge id=":1131291992_1" function="internal">
        <lane id=":1131291992_1_0" index="0" allow="private emergency authority army vip passenger hov taxi bus coach delivery truck trailer motorcycle evehicle custom1 custom2" speed="13.89" length="32.22" shape="8266.88,8300.60 8295.86,8314.68"/>
    </edge>
    <edge id=":1131292074_0" function="internal">
        <lane id=":1131292074_0_0" index="0" allow="private emergency authority army vip passenger hov taxi bus coach delivery truck trailer motorcycle evehicle custom1 custom2" speed="18.05" length="0.39" shape="8393.26,8344.22 8393.36,8344.26 8393.44,8344.29 8393.51,8344.32 8393.60,8344.38"/>
    </edge>
    <edge id=":1131292098_0" function="internal">
        <lane id=":1131292098_0_0" index="0" allow="private emergency authority army vip passenger hov taxi bus coach delivery truck trailer motorcycle evehicle custom1 custom2" speed="22.22" length="4.06" shape="8298.30,8375.23 8297.17,8374.82 8296.40,8374.53 8295.65,8374.19 8294.58,8373.64"/>
    </edge>
    <edge id=":1131292098_1" function="internal">
        <lane id=":1131292098_1_0" index="0" allow="private emergency authority army vip passenger hov taxi bus coach delivery truck trailer motorcycle evehicle custom1 custom2" speed="22.22" length="3.46" shape="8299.29,8372.04 8298.30,8371.78 8297.63,8371.56 8296.99,8371.28 8296.07,8370.81"/>
    </edge>
    <edge id=":1143177728_0" function="internal">
        <lane id=":1143177728_0_0" index="0" disallow="pedestrian tram rail_urban rail rail_electric rail_fast ship" speed="8.38" length="8.29" shape="7997.01,8143.09 7998.63,8142.86 8000.29,8142.04 8001.97,8140.65 8003.69,8138.67"/>
        <lane id=":1143177728_0_1" index="1" disallow="pedestrian tram rail_urban rail rail_electric rail_fast ship" speed="11.05" length="9.15" shape="7997.01,8143.09 7999.73,8143.24 8001.66,8143.22 8003.43,8142.66 8005.64,8141.21"/>
    </edge>
    <edge id=":1143177728_2" function="internal">
        <lane id=":1143177728_2_0" index="0" disallow="tram rail_urban rail rail_electric rail_fast ship" speed="14.52" length="9.48" shape="7997.01,8143.09 7999.95,8143.15 8001.99,8143.32 8003.90,8143.93 8006.42,8145.34"/>
        <lane id=":1143177728_2_1" index="1" disallow="tram rail_urban rail rail_electric rail_fast ship" speed="13.94" length="9.48" shape="7996.90,8146.29 7999.59,8146.38 8001.45,8146.59 8003.20,8147.22 8005.50,8148.55"/>
    </edge>
    <edge id=":1528823417_0" function="internal">
        <lane id=":1528823417_0_0" index="0" allow="private emergency authority army vip passenger hov taxi bus coach delivery truck trailer motorcycle evehicle custom1 custom2" speed="30.83" length="2.60" shape="8529.17,8439.62 8528.43,8439.40 8527.92,8439.23 8527.44,8439.03 8526.74,8438.71"/>
    </edge>
    <edge id=":1528823417_1" function="internal">
        <lane id=":1528823417_1_0" index="0" allow="private emergency authority army vip passenger hov taxi bus coach delivery truck trailer motorcycle evehicle custom1 custom2" speed="39.44" length="1.85" shape="8530.02,8436.53 8529.42,8436.37 8529.01,8436.25 8528.61,8436.11 8528.03,8435.87"/>
        <lane id=":1528823417_1_1" index="1" allow="private emergency authority army vip passenger hov taxi bus coach delivery truck trailer motorcycle evehicle custom1 custom2" speed="39.44" length="1.85" shape="8530.88,8433.45 8530.43,8433.33 8530.11,8433.24 8529.81,8433.14 8529.37,8432.96"/>
    </edge>
    <edge id=":258900075-AddedOnRampNode_0" function="internal">
        <lane id=":258900075-AddedOnRampNode_0_0" index="0" allow="private emergency authority army vip passenger hov taxi bus coach delivery truck trailer motorcycle evehicle custom1 custom2" speed="22.22" length="8.00" shape="8162.71,8269.48 8155.64,8265.75"/>
    </edge>
    <edge id=":2642099386_0" function="internal">
        <lane id=":2642099386_0_0" index="0" allow="private emergency authority army vip passenger hov taxi bus coach delivery truck trailer motorcycle evehicle custom1 custom2" speed="30.83" length="3.10" shape="8368.43,8370.10 8365.59,8368.84"/>
    </edge>
    <edge id=":2642099386_1" function="internal">
        <lane id=":2642099386_1_0" index="0" allow="private emergency authority army vip passenger hov taxi bus coach delivery truck trailer motorcycle evehicle custom1 custom2" speed="39.44" length="3.09" shape="8369.82,8367.22 8367.05,8365.87"/>
        <lane id=":2642099386_1_1" index="1" allow="private emergency authority army vip passenger hov taxi bus coach delivery truck trailer motorcycle evehicle custom1 custom2" speed="39.44" length="3.09" shape="8371.22,8364.34 8368.44,8362.99"/>
    </edge>
    <edge id=":2642099391_0" function="internal">
        <lane id=":2642099391_0_0" index="0" allow="private emergency authority army vip passenger hov taxi bus coach delivery truck trailer motorcycle evehicle custom1 custom2" speed="22.22" length="3.23" shape="8390.83,8363.09 8393.78,8364.39"/>
        <lane id=":2642099391_0_1" index="1" allow="private emergency authority army vip passenger hov taxi bus coach delivery truck trailer motorcycle evehicle custom1 custom2" speed="22.22" length="3.23" shape="8389.53,8366.01 8392.49,8367.32"/>
    </edge>
    <edge id=":2642099391_2" function="internal">
        <lane id=":2642099391_2_0" index="0" allow="private emergency authority army vip passenger hov taxi bus coach delivery truck trailer motorcycle evehicle custom1 custom2" speed="18.05" length="3.23" shape="8392.05,8360.35 8392.96,8360.64 8393.59,8360.85 8394.20,8361.09 8395.07,8361.47"/>
    </edge>
    <edge id=":36730965_0" function="internal">
        <lane id=":36730965_0_0" index="0" allow="private emergency authority army vip passenger hov taxi bus coach delivery truck trailer motorcycle evehicle custom1 custom2" speed="22.22" length="2.87" shape="8533.15,8421.93 8535.76,8422.76"/>
        <lane id=":36730965_0_1" index="1" allow="private emergency authority army vip passenger hov taxi bus coach delivery truck trailer motorcycle evehicle custom1 custom2" speed="22.22" length="2.87" shape="8532.07,8424.95 8534.93,8425.85"/>
    </edge>
    <edge id=":36730965_2" function="internal">
        <lane id=":36730965_2_0" index="0" allow="private emergency authority army vip passenger hov taxi bus coach delivery truck trailer motorcycle evehicle custom1 custom2" speed="22.22" length="2.49" shape="8534.21,8418.94 8536.60,8419.67"/>
    </edge>
    <edge id=":687058128_0" function="internal">
        <lane id=":687058128_0_0" index="0" disallow="pedestrian tram rail_urban rail rail_electric rail_fast ship" speed="7.87" length="8.10" shape="8000.15,8198.83 7998.63,8199.36 7997.24,8200.48 7995.98,8202.20 7994.84,8204.51"/>
        <lane id=":687058128_0_1" index="1" disallow="pedestrian tram rail_urban rail rail_electric rail_fast ship" speed="8.60" length="9.78" shape="8000.15,8198.83 7997.07,8199.48 7994.66,8200.44 7992.94,8201.71 7991.88,8203.29"/>
    </edge>
    <edge id=":687058128_2" function="internal">
        <lane id=":687058128_2_0" index="0" disallow="tram rail_urban rail rail_electric rail_fast ship" speed="27.78" length="10.63" shape="8000.15,8198.83 7996.91,8199.23 7994.67,8199.30 7992.43,8199.11 7989.18,8198.74"/>
        <lane id=":687058128_2_1" index="1" disallow="tram rail_urban rail rail_electric rail_fast ship" speed="27.78" length="10.63" shape="7999.69,8195.67 7996.68,8196.03 7994.61,8196.09 7992.53,8195.91 7989.51,8195.56"/>
    </edge>
    <edge id=":687058139_0" function="internal">
        <lane id=":687058139_0_0" index="0" disallow="pedestrian tram rail_urban rail rail_electric rail_fast ship" speed="27.78" length="13.02" shape="8017.59,8145.54 8017.83,8149.25 8017.86,8151.85 8018.26,8154.35 8019.60,8157.74"/>
        <lane id=":687058139_0_1" index="1" disallow="pedestrian tram rail_urban rail rail_electric rail_fast ship" speed="27.78" length="13.02" shape="8014.41,8145.91 8014.69,8149.93 8014.77,8152.75 8015.24,8155.44 8016.71,8159.12"/>
    </edge>
    <edge id=":687058139_2" function="internal">
        <lane id=":687058139_2_0" index="0" disallow="tram rail_urban rail rail_electric rail_fast ship" speed="15.97" length="13.28" shape="8010.49,8147.90 8013.90,8150.09 8016.09,8151.89 8017.75,8154.15 8019.60,8157.74"/>
        <lane id=":687058139_2_1" index="1" disallow="tram rail_urban rail rail_electric rail_fast ship" speed="15.44" length="13.28" shape="8008.01,8150.12 8011.22,8152.14 8013.33,8153.75 8014.96,8155.80 8016.71,8159.12"/>
    </edge>
    <edge id=":687058177_0" function="internal">
        <lane id=":687058177_0_0" index="0" disallow="tram rail_urban rail rail_electric rail_fast ship" speed="27.39" length="9.11" shape="8017.71,8184.31 8016.36,8186.85 8015.91,8188.95 8015.26,8190.84 8013.31,8192.72"/>
        <lane id=":687058177_0_1" index="1" disallow="tram rail_urban rail rail_electric rail_fast ship" speed="25.59" length="9.11" shape="8017.71,8184.31 8016.16,8186.29 8014.99,8187.57 8013.63,8188.65 8011.55,8190.05"/>
    </edge>
    <edge id=":687058179_0" function="internal">
        <lane id=":687058179_0_0" index="0" disallow="tram rail_urban rail rail_electric rail_fast ship" speed="19.35" length="7.57" shape="8020.18,8172.23 8020.47,8174.44 8020.49,8175.98 8020.24,8177.51 8019.75,8179.70"/>
    </edge>
    <edge id=":687058180_0" function="internal">
        <lane id=":687058180_0_0" index="0" disallow="tram rail_urban rail rail_electric rail_fast ship" speed="15.83" length="7.82" shape="7975.95,8153.22 7977.46,8151.15 7978.07,8149.24 7978.85,8147.63 7980.87,8146.49"/>
        <lane id=":687058180_0_1" index="1" disallow="tram rail_urban rail rail_electric rail_fast ship" speed="14.21" length="7.82" shape="7975.95,8153.22 7977.47,8151.81 7978.57,8150.89 7979.81,8150.21 7981.75,8149.57"/>
    </edge>
    <edge id=":687058182_0" function="internal">
        <lane id=":687058182_0_0" index="0" disallow="tram rail_urban rail rail_electric rail_fast ship" speed="16.96" length="8.62" shape="7970.02,8168.06 7969.93,8165.52 7970.05,8163.76 7970.50,8162.05 7971.41,8159.68"/>
    </edge>
    <edge id=":687058184_0" function="internal">
        <lane id=":687058184_0_0" index="0" disallow="pedestrian tram rail_urban rail rail_electric rail_fast ship" speed="8.93" length="8.22" shape="7979.96,8201.07 7979.71,8198.30 7979.25,8196.10 7978.56,8194.46 7977.66,8193.38"/>
        <lane id=":687058184_0_1" index="1" disallow="pedestrian tram rail_urban rail rail_electric rail_fast ship" speed="10.24" length="10.96" shape="7983.16,8200.93 7982.81,8197.46 7982.10,8194.62 7981.04,8192.42 7979.63,8190.86"/>
    </edge>
    <edge id=":687058184_2" function="internal">
        <lane id=":687058184_2_0" index="0" disallow="tram rail_urban rail rail_electric rail_fast ship" speed="27.78" length="10.13" shape="7986.98,8198.23 7984.05,8197.09 7982.05,8196.27 7980.18,8195.22 7977.66,8193.38"/>
        <lane id=":687058184_2_1" index="1" disallow="tram rail_urban rail rail_electric rail_fast ship" speed="27.78" length="10.13" shape="7988.19,8195.27 7985.51,8194.23 7983.66,8193.49 7981.94,8192.54 7979.63,8190.86"/>
    </edge>
    <edge id=":95098677#1-AddedOnRampNode_0" function="internal">
        <lane id=":95098677#1-AddedOnRampNode_0_0" index="0" allow="private emergency authority army vip passenger hov taxi bus coach delivery truck trailer motorcycle evehicle custom1 custom2" speed="22.22" length="8.00" shape="8480.35,8402.69 8487.74,8405.69"/>
        <lane id=":95098677#1-AddedOnRampNode_0_1" index="1" allow="private emergency authority army vip passenger hov taxi bus coach delivery truck trailer motorcycle evehicle custom1 custom2" speed="22.22" length="8.00" shape="8479.05,8405.62 8486.48,8408.64"/>
    </edge>
    <edge id=":95117812#1-AddedOffRampNode_0" function="internal">