<?xml version="1.0" encoding="UTF-8"?>

<!-- generated on 2023-04-11 15:24:53 by Eclipse SUMO netedit Version 1.15.0
<configuration xmlns:xsi="http://www.w3.org/2001/XMLSchema-instance" xsi:noNamespaceSchemaLocation="http://sumo.dlr.de/xsd/netconvertConfiguration.xsd">

    <input>
        <sumo-net-file value="C:\Users\Paulinho\Desktop\Master-Thesis\nodes\no_via_panoramica.net.xml"/>
    </input>

    <output>
        <output-file value="C:\Users\Paulinho\Desktop\Master-Thesis\nodes\no_via_panoramica.net.xml"/>
        <output.street-names value="true"/>
    </output>

    <processing>
        <geometry.min-radius.fix.railways value="false"/>
        <geometry.max-grade.fix value="false"/>
        <offset.disable-normalization value="true"/>
        <lefthand value="0"/>
    </processing>

    <junctions>
        <no-turnarounds value="true"/>
        <junctions.corner-detail value="5"/>
        <junctions.limit-turn-speed value="5.50"/>
        <rectangular-lane-cut value="0"/>
    </junctions>

    <pedestrian>
        <walkingareas value="0"/>
    </pedestrian>

    <netedit>
        <additional-files value="C:\Users\Paulinho\Desktop\Master-Thesis\nodes\no_via_panoramica_poi.xml"/>
    </netedit>

</configuration>
-->

<net version="1.9" junctionCornerDetail="5" limitTurnSpeed="5.50" xmlns:xsi="http://www.w3.org/2001/XMLSchema-instance" xsi:noNamespaceSchemaLocation="http://sumo.dlr.de/xsd/net_file.xsd">

    <location netOffset="-524914.43,-4544541.91" convBoundary="4579.44,10804.19,5669.98,12024.75" origBoundary="-8.702913,41.051318,-8.236192,41.279522" projParameter="+proj=utm +zone=29 +ellps=WGS84 +datum=WGS84 +units=m +no_defs"/>

    <type id="highway.bridleway" priority="1" numLanes="1" speed="2.78" allow="pedestrian" oneway="1" width="2.00"/>
    <type id="highway.bus_guideway" priority="1" numLanes="1" speed="27.78" allow="bus" oneway="1"/>
    <type id="highway.cycleway" priority="1" numLanes="1" speed="5.56" allow="bicycle" oneway="0" width="1.00"/>
    <type id="highway.footway" priority="1" numLanes="1" speed="2.78" allow="pedestrian" oneway="1" width="2.00"/>
    <type id="highway.ford" priority="1" numLanes="1" speed="2.78" allow="army" oneway="0"/>
    <type id="highway.living_street" priority="2" numLanes="1" speed="2.78" disallow="tram rail_urban rail rail_electric rail_fast ship" oneway="0"/>
    <type id="highway.motorway" priority="14" numLanes="2" speed="39.44" allow="private emergency authority army vip passenger hov taxi bus coach delivery truck trailer motorcycle evehicle custom1 custom2" oneway="1"/>
    <type id="highway.motorway_link" priority="9" numLanes="1" speed="22.22" allow="private emergency authority army vip passenger hov taxi bus coach delivery truck trailer motorcycle evehicle custom1 custom2" oneway="1"/>
    <type id="highway.path" priority="1" numLanes="1" speed="5.56" allow="pedestrian bicycle" oneway="0" width="2.00"/>
    <type id="highway.pedestrian" priority="1" numLanes="1" speed="2.78" allow="pedestrian" oneway="1" width="2.00"/>
    <type id="highway.primary" priority="12" numLanes="2" speed="27.78" disallow="tram rail_urban rail rail_electric rail_fast ship" oneway="0"/>
    <type id="highway.primary_link" priority="7" numLanes="1" speed="22.22" disallow="tram rail_urban rail rail_electric rail_fast ship" oneway="0"/>
    <type id="highway.raceway" priority="15" numLanes="2" speed="83.33" allow="vip" oneway="0"/>
    <type id="highway.residential" priority="3" numLanes="1" speed="13.89" disallow="tram rail_urban rail rail_electric rail_fast ship" oneway="0"/>
    <type id="highway.secondary" priority="11" numLanes="1" speed="27.78" disallow="tram rail_urban rail rail_electric rail_fast ship" oneway="0"/>
    <type id="highway.secondary_link" priority="6" numLanes="1" speed="22.22" disallow="tram rail_urban rail rail_electric rail_fast ship" oneway="0"/>
    <type id="highway.service" priority="1" numLanes="1" speed="5.56" allow="pedestrian delivery bicycle" oneway="0"/>
    <type id="highway.stairs" priority="1" numLanes="1" speed="1.39" allow="pedestrian" oneway="1" width="2.00"/>
    <type id="highway.step" priority="1" numLanes="1" speed="1.39" allow="pedestrian" oneway="1" width="2.00"/>
    <type id="highway.steps" priority="1" numLanes="1" speed="1.39" allow="pedestrian" oneway="1" width="2.00"/>
    <type id="highway.tertiary" priority="10" numLanes="1" speed="22.22" disallow="tram rail_urban rail rail_electric rail_fast ship" oneway="0"/>
    <type id="highway.tertiary_link" priority="5" numLanes="1" speed="22.22" disallow="tram rail_urban rail rail_electric rail_fast ship" oneway="0"/>
    <type id="highway.track" priority="1" numLanes="1" speed="5.56" allow="pedestrian motorcycle moped bicycle" oneway="0"/>
    <type id="highway.trunk" priority="13" numLanes="2" speed="27.78" disallow="pedestrian bicycle tram rail_urban rail rail_electric rail_fast ship" oneway="0"/>
    <type id="highway.trunk_link" priority="8" numLanes="1" speed="22.22" disallow="pedestrian bicycle tram rail_urban rail rail_electric rail_fast ship" oneway="0"/>
    <type id="highway.unclassified" priority="4" numLanes="1" speed="13.89" disallow="tram rail_urban rail rail_electric rail_fast ship" oneway="0"/>
    <type id="highway.unsurfaced" priority="1" numLanes="1" speed="8.33" disallow="tram rail_urban rail rail_electric rail_fast ship" oneway="0"/>
    <type id="railway.highspeed" priority="21" numLanes="1" speed="69.44" allow="rail_fast" oneway="1"/>
    <type id="railway.light_rail" priority="19" numLanes="1" speed="27.78" allow="rail_urban" oneway="1"/>
    <type id="railway.preserved" priority="16" numLanes="1" speed="27.78" allow="rail" oneway="1"/>
    <type id="railway.rail" priority="20" numLanes="1" speed="44.44" allow="rail" oneway="1"/>
    <type id="railway.subway" priority="18" numLanes="1" speed="27.78" allow="rail_urban" oneway="1"/>
    <type id="railway.tram" priority="17" numLanes="1" speed="13.89" allow="tram" oneway="1"/>

    <edge id=":111464592_0" function="internal">
        <lane id=":111464592_0_0" index="0" allow="private emergency authority army vip passenger hov taxi bus coach delivery truck trailer motorcycle evehicle custom1 custom2" speed="22.22" length="3.02" shape="4870.82,11366.64 4871.83,11363.79"/>
    </edge>
    <edge id=":111464592_1" function="internal">
        <lane id=":111464592_1_0" index="0" allow="private emergency authority army vip passenger hov taxi bus coach delivery truck trailer motorcycle evehicle custom1 custom2" speed="22.22" length="2.99" shape="4873.84,11367.71 4874.87,11364.88"/>
        <lane id=":111464592_1_1" index="1" allow="private emergency authority army vip passenger hov taxi bus coach delivery truck trailer motorcycle evehicle custom1 custom2" speed="22.22" length="2.99" shape="4876.86,11368.77 4877.89,11365.96"/>
        <lane id=":111464592_1_2" index="2" allow="private emergency authority army vip passenger hov taxi bus coach delivery truck trailer motorcycle evehicle custom1 custom2" speed="22.22" length="2.99" shape="4879.88,11369.84 4880.90,11367.04"/>
    </edge>
    <edge id=":129784803_0" function="internal">
        <lane id=":129784803_0_0" index="0" allow="private emergency authority army vip passenger hov taxi bus coach delivery truck trailer motorcycle evehicle custom1 custom2" speed="22.22" length="0.10" shape="5168.14,11092.64 5168.14,11092.64"/>
    </edge>
    <edge id=":26016457_0" function="internal">
        <lane id=":26016457_0_0" index="0" allow="private emergency authority army vip passenger hov taxi bus coach delivery truck trailer motorcycle evehicle custom1 custom2" speed="22.22" length="3.43" shape="5063.92,11116.86 5066.53,11114.68"/>
        <lane id=":26016457_0_1" index="1" allow="private emergency authority army vip passenger hov taxi bus coach delivery truck trailer motorcycle evehicle custom1 custom2" speed="22.22" length="3.43" shape="5065.96,11119.33 5068.59,11117.12"/>
        <lane id=":26016457_0_2" index="2" allow="private emergency authority army vip passenger hov taxi bus coach delivery truck trailer motorcycle evehicle custom1 custom2" speed="22.22" length="3.43" shape="5068.01,11121.79 5070.66,11119.56"/>
    </edge>
    <edge id=":26016457_3" function="internal">
        <lane id=":26016457_3_0" index="0" allow="private emergency authority army vip passenger hov taxi bus coach delivery truck trailer motorcycle evehicle custom1 custom2" speed="22.22" length="3.37" shape="5061.98,11114.52 5064.46,11112.24"/>
    </edge>
    <edge id=":26016466_0" function="internal">
        <lane id=":26016466_0_0" index="0" allow="private emergency authority army vip passenger hov taxi bus coach delivery truck trailer motorcycle evehicle custom1 custom2" speed="22.22" length="5.96" shape="5229.85,10902.67 5229.41,10904.36 5228.88,10905.44 5228.18,10906.46 5227.24,10907.97"/>
    </edge>
    <edge id=":26016466_1" function="internal">
        <lane id=":26016466_1_0" index="0" allow="private emergency authority army vip passenger hov taxi bus coach delivery truck trailer motorcycle evehicle custom1 custom2" speed="22.22" length="3.94" shape="5226.70,10902.08 5225.58,10907.00"/>
        <lane id=":26016466_1_1" index="1" allow="private emergency authority army vip passenger hov taxi bus coach delivery truck trailer motorcycle evehicle custom1 custom2" speed="22.22" length="3.94" shape="5223.56,10901.48 5222.69,10905.33"/>
        <lane id=":26016466_1_2" index="2" allow="private emergency authority army vip passenger hov taxi bus coach delivery truck trailer motorcycle evehicle custom1 custom2" speed="22.22" length="3.94" shape="5220.42,10900.89 5219.80,10903.65"/>
    </edge>
    <edge id=":35539786#1-AddedOffRampNode_0" function="internal">
        <lane id=":35539786#1-AddedOffRampNode_0_0" index="0" allow="private emergency authority army vip passenger hov taxi bus coach delivery truck trailer motorcycle evehicle custom1 custom2" speed="22.22" length="8.20" shape="4886.63,11389.96 4886.26,11392.43 4886.79,11394.24 4887.34,11396.05 4887.03,11398.55"/>
        <lane id=":35539786#1-AddedOffRampNode_0_1" index="1" allow="private emergency authority army vip passenger hov taxi bus coach delivery truck trailer motorcycle evehicle custom1 custom2" speed="22.22" length="8.20" shape="4886.63,11389.96 4884.00,11397.52"/>
        <lane id=":35539786#1-AddedOffRampNode_0_2" index="2" allow="private emergency authority army vip passenger hov taxi bus coach delivery truck trailer motorcycle evehicle custom1 custom2" speed="22.22" length="8.20" shape="4883.60,11388.93 4880.97,11396.49"/>
        <lane id=":35539786#1-AddedOffRampNode_0_3" index="3" allow="private emergency authority army vip passenger hov taxi bus coach delivery truck trailer motorcycle evehicle custom1 custom2" speed="22.22" length="8.20" shape="4880.57,11387.90 4877.94,11395.47"/>
    </edge>
    <edge id=":35539786#1-AddedOnRampNode_0" function="internal">
        <lane id=":35539786#1-AddedOnRampNode_0_0" index="0" allow="private emergency authority army vip passenger hov taxi bus coach delivery truck trailer motorcycle evehicle custom1 custom2" speed="22.22" length="8.00" shape="5026.67,11174.14 5020.80,11179.57"/>
        <lane id=":35539786#1-AddedOnRampNode_0_1" index="1" allow="private emergency authority army vip passenger hov taxi bus coach delivery truck trailer motorcycle evehicle custom1 custom2" speed="22.22" length="8.00" shape="5024.50,11171.79 5018.63,11177.23"/>
        <lane id=":35539786#1-AddedOnRampNode_0_2" index="2" allow="private emergency authority army vip passenger hov taxi bus coach delivery truck trailer motorcycle evehicle custom1 custom2" speed="22.22" length="8.00" shape="5022.32,11169.44 5016.45,11174.88"/>
    </edge>
    <edge id=":4188196594_0" function="internal">
        <lane id=":4188196594_0_0" index="0" allow="private emergency authority army vip passenger hov taxi bus coach delivery truck trailer motorcycle evehicle custom1 custom2" speed="22.22" length="7.96" shape="5116.71,11071.18 5122.30,11065.68"/>
        <lane id=":4188196594_0_1" index="1" allow="private emergency authority army vip passenger hov taxi bus coach delivery truck trailer motorcycle evehicle custom1 custom2" speed="22.22" length="7.96" shape="5118.92,11073.50 5124.59,11067.91"/>
        <lane id=":4188196594_0_2" index="2" allow="private emergency authority army vip passenger hov taxi bus coach delivery truck trailer motorcycle evehicle custom1 custom2" speed="22.22" length="7.96" shape="5121.12,11075.82 5126.88,11070.15"/>
    </edge>
    <edge id=":4444772637_0" function="internal">
        <lane id=":4444772637_0_0" index="0" allow="private emergency authority army vip passenger hov taxi bus coach delivery truck trailer motorcycle evehicle custom1 custom2" speed="22.22" length="3.15" shape="5103.94,11115.00 5103.16,11115.51 5102.63,11115.87 5102.12,11116.25 5101.38,11116.83"/>
    </edge>
    <edge id=":4444772637_1" function="internal">
        <lane id=":4444772637_1_0" index="0" allow="private emergency authority army vip passenger hov taxi bus coach delivery truck trailer motorcycle evehicle custom1 custom2" speed="22.22" length="3.06" shape="5101.86,11112.30 5099.40,11114.32"/>
        <lane id=":4444772637_1_1" index="1" allow="private emergency authority army vip passenger hov taxi bus coach delivery truck trailer motorcycle evehicle custom1 custom2" speed="22.22" length="3.06" shape="5099.79,11109.86 5097.42,11111.81"/>
        <lane id=":4444772637_1_2" index="2" allow="private emergency authority army vip passenger hov taxi bus coach delivery truck trailer motorcycle evehicle custom1 custom2" speed="22.22" length="3.06" shape="5097.72,11107.43 5095.44,11109.29"/>
    </edge>
    <edge id=":4444772651_0" function="internal">
        <lane id=":4444772651_0_0" index="0" allow="private emergency authority army vip passenger hov taxi bus coach delivery truck trailer motorcycle evehicle custom1 custom2" speed="22.22" length="0.29" shape="4907.59,11293.02 4907.76,11292.73"/>
        <lane id=":4444772651_0_1" index="1" allow="private emergency authority army vip passenger hov taxi bus coach delivery truck trailer motorcycle evehicle custom1 custom2" speed="22.22" length="0.29" shape="4910.40,11294.56 4910.54,11294.31"/>
        <lane id=":4444772651_0_2" index="2" allow="private emergency authority army vip passenger hov taxi bus coach delivery truck trailer motorcycle evehicle custom1 custom2" speed="22.22" length="0.29" shape="4913.21,11296.09 4913.32,11295.89"/>
    </edge>
    <edge id=":4444772660_0" function="internal">
        <lane id=":4444772660_0_0" index="0" allow="private emergency authority army vip passenger hov taxi bus coach delivery truck trailer motorcycle evehicle custom1 custom2" speed="22.22" length="3.14" shape="4858.81,11488.42 4858.53,11489.31 4858.36,11489.92 4858.21,11490.54 4858.01,11491.46"/>
    </edge>
    <edge id=":4444772660_1" function="internal">
        <lane id=":4444772660_1_0" index="0" allow="private emergency authority army vip passenger hov taxi bus coach delivery truck trailer motorcycle evehicle custom1 custom2" speed="22.22" length="3.12" shape="4855.75,11487.47 4854.82,11490.46"/>
        <lane id=":4444772660_1_1" index="1" allow="private emergency authority army vip passenger hov taxi bus coach delivery truck trailer motorcycle evehicle custom1 custom2" speed="22.22" length="3.12" shape="4852.69,11486.53 4851.76,11489.51"/>
        <lane id=":4444772660_1_2" index="2" allow="private emergency authority army vip passenger hov taxi bus coach delivery truck trailer motorcycle evehicle custom1 custom2" speed="22.22" length="3.12" shape="4849.63,11485.58 4848.71,11488.55"/>
    </edge>
    <edge id=":4564388245_0" function="internal">
        <lane id=":4564388245_0_0" index="0" allow="private emergency authority army vip passenger hov taxi bus coach delivery truck trailer motorcycle evehicle custom1 custom2" speed="22.22" length="0.10" shape="5232.77,10887.28 5232.77,10887.28"/>
        <lane id=":4564388245_0_1" index="1" allow="private emergency authority army vip passenger hov taxi bus coach delivery truck trailer motorcycle evehicle custom1 custom2" speed="22.22" length="0.10" shape="5229.62,10886.69 5229.62,10886.69"/>
        <lane id=":4564388245_0_2" index="2" allow="private emergency authority army vip passenger hov taxi bus coach delivery truck trailer motorcycle evehicle custom1 custom2" speed="22.22" length="0.10" shape="5226.48,10886.09 5226.48,10886.09"/>
        <lane id=":4564388245_0_3" index="3" allow="private emergency authority army vip passenger hov taxi bus coach delivery truck trailer motorcycle evehicle custom1 custom2" speed="22.22" length="0.10" shape="5223.33,10885.50 5223.33,10885.50"/>
    </edge>
    <edge id=":784545881_0" function="internal">
        <lane id=":784545881_0_0" index="0" allow="private emergency authority army vip passenger hov taxi bus coach delivery truck trailer motorcycle evehicle custom1 custom2" speed="22.22" length="8.20" shape="4850.00,11439.29 4850.25,11436.79 4849.65,11435.00 4849.05,11433.20 4849.30,11430.71"/>
        <lane id=":784545881_0_1" index="1" allow="private emergency authority army vip passenger hov taxi bus coach delivery truck trailer motorcycle evehicle custom1 custom2" speed="22.22" length="8.20" shape="4850.00,11439.29 4852.36,11431.65"/>
        <lane id=":784545881_0_2" index="2" allow="private emergency authority army vip passenger hov taxi bus coach delivery truck trailer motorcycle evehicle custom1 custom2" speed="22.22" length="8.20" shape="4853.06,11440.23 4855.41,11432.59"/>
        <lane id=":784545881_0_3" index="3" allow="private emergency authority army vip passenger hov taxi bus coach delivery truck trailer motorcycle evehicle custom1 custom2" speed="22.22" length="8.20" shape="4856.11,11441.18 4858.47,11433.53"/>
    </edge>
    <edge id=":784545908_0" function="internal">
        <lane id=":784545908_0_0" index="0" allow="private emergency authority army vip passenger hov taxi bus coach delivery truck trailer motorcycle evehicle custom1 custom2" speed="22.22" length="0.30" shape="4877.05,11429.50 4876.96,11429.77"/>
        <lane id=":784545908_0_1" index="1" allow="private emergency authority army vip passenger hov taxi bus coach delivery truck trailer motorcycle evehicle custom1 custom2" speed="22.22" length="0.30" shape="4873.99,11428.54 4873.90,11428.82"/>
        <lane id=":784545908_0_2" index="2" allow="private emergency authority army vip passenger hov taxi bus coach delivery truck trailer motorcycle evehicle custom1 custom2" speed="22.22" length="0.30" shape="4870.94,11427.58 4870.85,11427.87"/>
        <lane id=":784545908_0_3" index="3" allow="private emergency authority army vip passenger hov taxi bus coach delivery truck trailer motorcycle evehicle custom1 custom2" speed="22.22" length="0.30" shape="4867.89,11426.62 4867.79,11426.93"/>
    </edge>

    <edge id="12297710" from="26016466" to="111461666" priority="9" type="highway.motorway_link" spreadType="center" shape="5229.66,10903.64 5222.53,10916.40 5222.48,10929.63 5223.66,10944.04 5225.65,10956.17 5228.41,10966.82 5231.88,10976.68 5237.65,10989.05 5244.93,11000.53 5249.21,11005.74 5254.18,11011.81 5263.19,11020.76 5278.74,11033.03 5301.10,11045.42 5322.14,11052.87 5343.64,11056.22 5370.30,11055.93 5452.07,11048.91 5492.94,11045.47 5586.69,11039.07 5650.05,11032.35 5669.98,11033.03">
        <lane id="12297710_0" index="0" allow="private emergency authority army vip passenger hov taxi bus coach delivery truck trailer motorcycle evehicle custom1 custom2" speed="22.22" length="542.45" shape="5227.24,10907.97 5222.53,10916.40 5222.48,10929.63 5223.66,10944.04 5225.65,10956.17 5228.41,10966.82 5231.88,10976.68 5237.65,10989.05 5244.93,11000.53 5249.21,11005.74 5254.18,11011.81 5263.19,11020.76 5278.74,11033.03 5301.10,11045.42 5322.14,11052.87 5343.64,11056.22 5370.30,11055.93 5452.07,11048.91 5492.94,11045.47 5586.69,11039.07 5650.05,11032.35 5669.98,11033.03">
            <param key="origId" value="12297710 95841153 95841130"/>
        </lane>
    </edge>
    <edge id="12298305" from="111464592" to="1110673511" name="Via Panorâmica" priority="9" type="highway.motorway_link" spreadType="center" shape="4871.32,11365.22 4886.02,11324.15 4888.80,11307.11 4891.78,11284.82 4893.75,11261.94 4894.69,11235.49 4890.28,11112.84 4889.57,11085.37 4890.10,11063.28 4894.76,11032.84 4900.32,11014.96 4907.12,10998.33 4914.92,10981.65 4927.28,10961.29 4950.74,10931.47 4981.01,10901.65 4999.79,10887.74 5019.81,10875.90 5044.97,10863.67 5080.80,10850.76 5104.84,10844.60 5118.14,10842.05 5132.11,10840.18 5147.29,10839.23 5163.28,10838.57 5189.06,10839.47 5203.72,10841.15 5219.02,10843.92 5256.29,10854.24 5293.22,10864.73 5328.08,10875.73 5367.85,10892.50 5414.77,10917.01 5473.06,10947.48">
        <lane id="12298305_0" index="0" allow="private emergency authority army vip passenger hov taxi bus coach delivery truck trailer motorcycle evehicle custom1 custom2" speed="22.22" length="1021.69" shape="4871.83,11363.79 4886.02,11324.15 4888.80,11307.11 4891.78,11284.82 4893.75,11261.94 4894.69,11235.49 4890.28,11112.84 4889.57,11085.37 4890.10,11063.28 4894.76,11032.84 4900.32,11014.96 4907.12,10998.33 4914.92,10981.65 4927.28,10961.29 4950.74,10931.47 4981.01,10901.65 4999.79,10887.74 5019.81,10875.90 5044.97,10863.67 5080.80,10850.76 5104.84,10844.60 5118.14,10842.05 5132.11,10840.18 5147.29,10839.23 5163.28,10838.57 5189.06,10839.47 5203.72,10841.15 5219.02,10843.92 5256.29,10854.24 5293.22,10864.73 5328.08,10875.73 5367.85,10892.50 5414.77,10917.01 5473.06,10947.48">
            <param key="origId" value="12298305"/>
        </lane>
    </edge>
    <edge id="12300807-AddedOffRampEdge" from="12300807-AddedOffRampNode" to="4564388245" name="Ponte da Arrábida" priority="14" type="highway.motorway" spreadType="center" shape="5243.57,10804.49 5228.05,10886.39">
        <lane id="12300807-AddedOffRampEdge_0" index="0" allow="private emergency authority army vip passenger hov taxi bus coach delivery truck trailer motorcycle evehicle custom1 custom2" speed="22.22" length="83.36" shape="5248.29,10805.38 5232.77,10887.28">
            <param key="origId" value="12300807 460986073"/>
        </lane>
        <lane id="12300807-AddedOffRampEdge_1" index="1" allow="private emergency authority army vip passenger hov taxi bus coach delivery truck trailer motorcycle evehicle custom1 custom2" speed="22.22" length="83.36" shape="5245.14,10804.79 5229.62,10886.69">
            <param key="origId" value="12300807 460986073"/>
        </lane>
        <lane id="12300807-AddedOffRampEdge_2" index="2" allow="private emergency authority army vip passenger hov taxi bus coach delivery truck trailer motorcycle evehicle custom1 custom2" speed="22.22" length="83.36" shape="5242.00,10804.19 5226.48,10886.09">
            <param key="origId" value="12300807 460986073"/>
        </lane>
        <lane id="12300807-AddedOffRampEdge_3" index="3" allow="private emergency authority army vip passenger hov taxi bus coach delivery truck trailer motorcycle evehicle custom1 custom2" speed="22.22" length="83.36" shape="5238.85,10803.59 5223.33,10885.50">
            <param key="origId" value="12300807 460986073"/>
        </lane>
        <param key="ref" value="A 1"/>
    </edge>
    <edge id="13702954" from="4444772660" to="3540014383" priority="9" type="highway.motorway_link" spreadType="center" shape="4858.33,11489.97 4853.33,11513.28 4845.85,11543.52 4840.97,11563.27 4827.27,11618.71 4824.11,11637.81 4823.90,11645.50 4824.28,11652.90 4826.26,11662.08 4830.35,11673.83 4835.92,11688.69 4843.39,11705.24">
        <lane id="13702954_0" index="0" allow="private emergency authority army vip passenger hov taxi bus coach delivery truck trailer motorcycle evehicle custom1 custom2" speed="22.22" length="220.56" shape="4858.01,11491.46 4853.33,11513.28 4845.85,11543.52 4840.97,11563.27 4827.27,11618.71 4824.11,11637.81 4823.90,11645.50 4824.28,11652.90 4826.26,11662.08 4830.35,11673.83 4835.92,11688.69 4843.11,11704.61">
            <param key="origId" value="13702954"/>
        </lane>
    </edge>
    <edge id="35539786#0" from="26016466" to="4444772637" name="Via de Cintura Interna" priority="14" type="highway.motorway" spreadType="center" shape="5223.38,10902.44 5218.89,10921.29 5214.31,10938.09 5210.03,10951.97 5205.24,10964.86 5199.92,10977.72 5193.90,10990.58 5187.80,11002.85 5180.86,11015.68 5175.29,11025.13 5173.65,11027.89 5166.24,11038.61 5157.25,11050.69 5148.65,11061.50 5139.76,11071.84 5129.64,11082.50 5119.54,11092.44 5109.14,11101.92 5098.63,11110.85">
        <lane id="35539786#0_0" index="0" allow="private emergency authority army vip passenger hov taxi bus coach delivery truck trailer motorcycle evehicle custom1 custom2" speed="22.22" length="243.43" shape="5225.58,10907.00 5221.99,10922.08 5217.38,10938.98 5213.06,10953.00 5208.22,10966.03 5202.85,10979.01 5196.78,10991.97 5190.64,11004.32 5183.65,11017.25 5178.05,11026.76 5176.34,11029.62 5168.84,11040.48 5159.79,11052.64 5151.12,11063.54 5142.14,11073.99 5131.92,11084.74 5121.74,11094.76 5111.25,11104.32 5101.86,11112.30">
            <param key="origId" value="35539786"/>
        </lane>
        <lane id="35539786#0_1" index="1" allow="private emergency authority army vip passenger hov taxi bus coach delivery truck trailer motorcycle evehicle custom1 custom2" speed="22.22" length="243.43" shape="5222.69,10905.33 5218.89,10921.29 5214.31,10938.09 5210.03,10951.97 5205.24,10964.86 5199.92,10977.72 5193.90,10990.58 5187.80,11002.85 5180.86,11015.68 5175.29,11025.13 5173.65,11027.89 5166.24,11038.61 5157.25,11050.69 5148.65,11061.50 5139.76,11071.84 5129.64,11082.50 5119.54,11092.44 5109.14,11101.92 5099.79,11109.86">
            <param key="origId" value="35539786"/>
        </lane>
        <lane id="35539786#0_2" index="2" allow="private emergency authority army vip passenger hov taxi bus coach delivery truck trailer motorcycle evehicle custom1 custom2" speed="22.22" length="243.43" shape="5219.80,10903.65 5215.79,10920.50 5211.24,10937.20 5207.00,10950.94 5202.26,10963.69 5196.99,10976.43 5191.02,10989.19 5184.96,11001.38 5178.07,11014.11 5172.53,11023.50 5170.96,11026.16 5163.64,11036.74 5154.71,11048.74 5146.18,11059.46 5137.38,11069.69 5127.36,11080.26 5117.34,11090.12 5107.03,11099.52 5097.72,11107.43">
            <param key="origId" value="35539786"/>
        </lane>
        <param key="ref" value="IC 23"/>
    </edge>
    <edge id="35539786#1" from="35539786#1-AddedOnRampNode" to="35539786#1-AddedOffRampNode" name="Via de Cintura Interna" priority="14" type="highway.motorway" spreadType="center" shape="5021.56,11174.51 5012.43,11182.97 4983.80,11212.82 4973.97,11223.93 4961.49,11239.17 4941.52,11267.77 4921.37,11301.79 4913.13,11317.60 4903.71,11337.34 4896.11,11355.25 4882.76,11391.20 4882.25,11392.70">
        <lane id="35539786#1_0" index="0" allow="private emergency authority army vip passenger hov taxi bus coach delivery truck trailer motorcycle evehicle custom1 custom2" speed="22.22" length="253.85" shape="5020.80,11179.57 5014.67,11185.25 4986.15,11214.99 4976.41,11226.00 4964.04,11241.10 4944.21,11269.50 4924.17,11303.35 4915.99,11319.03 4906.63,11338.65 4899.08,11356.43 4886.63,11389.96">
            <param key="origId" value="35539786 447313060 63202748"/>
        </lane>
        <lane id="35539786#1_1" index="1" allow="private emergency authority army vip passenger hov taxi bus coach delivery truck trailer motorcycle evehicle custom1 custom2" speed="22.22" length="253.85" shape="5018.63,11177.23 5012.43,11182.97 4983.80,11212.82 4973.97,11223.93 4961.49,11239.17 4941.52,11267.77 4921.37,11301.79 4913.13,11317.60 4903.71,11337.34 4896.11,11355.25 4883.60,11388.93">
            <param key="origId" value="35539786 447313060 63202748"/>
        </lane>
        <lane id="35539786#1_2" index="2" allow="private emergency authority army vip passenger hov taxi bus coach delivery truck trailer motorcycle evehicle custom1 custom2" speed="22.22" length="253.85" shape="5016.45,11174.88 5010.19,11180.69 4981.45,11210.65 4971.53,11221.86 4958.94,11237.24 4938.83,11266.04 4918.57,11300.23 4910.27,11316.17 4900.79,11336.03 4893.14,11354.07 4880.57,11387.90">
            <param key="origId" value="35539786 447313060 63202748"/>
        </lane>
        <param key="ref" value="IC 23"/>
    </edge>
    <edge id="35539786#1-AddedOffRampEdge" from="35539786#1-AddedOffRampNode" to="784545908" name="Via de Cintura Interna" priority="14" type="highway.motorway" spreadType="center" shape="4883.77,11393.22 4878.92,11407.54 4872.42,11428.21">
        <lane id="35539786#1-AddedOffRampEdge_0" index="0" allow="private emergency authority army vip passenger hov taxi bus coach delivery truck trailer motorcycle evehicle custom1 custom2" speed="22.22" length="32.64" shape="4887.03,11398.55 4883.48,11409.03 4877.05,11429.50">
            <param key="origId" value="35539786 447313060 63202748"/>
        </lane>
        <lane id="35539786#1-AddedOffRampEdge_1" index="1" allow="private emergency authority army vip passenger hov taxi bus coach delivery truck trailer motorcycle evehicle custom1 custom2" speed="22.22" length="32.64" shape="4884.00,11397.52 4880.44,11408.04 4873.99,11428.54">
            <param key="origId" value="35539786 447313060 63202748"/>
        </lane>
        <lane id="35539786#1-AddedOffRampEdge_2" index="2" allow="private emergency authority army vip passenger hov taxi bus coach delivery truck trailer motorcycle evehicle custom1 custom2" speed="22.22" length="32.64" shape="4880.97,11396.49 4877.40,11407.04 4870.94,11427.58">
            <param key="origId" value="35539786 447313060 63202748"/>
        </lane>