<?xml version="1.0" encoding="UTF-8"?>

<!-- generated on 2023-05-23 12:25:10 by Eclipse SUMO netedit Version 1.15.0
<configuration xmlns:xsi="http://www.w3.org/2001/XMLSchema-instance" xsi:noNamespaceSchemaLocation="http://sumo.dlr.de/xsd/netconvertConfiguration.xsd">

    <input>
        <sumo-net-file value="C:\Users\Paulinho\Desktop\Master-Thesis\nodes\no_via_norte.net.xml"/>
    </input>

    <output>
        <output-file value="C:\Users\Paulinho\Desktop\Master-Thesis\nodes\no_via_norte.net.xml"/>
        <output.street-names value="true"/>
    </output>

    <processing>
        <geometry.min-radius.fix.railways value="false"/>
        <geometry.max-grade.fix value="false"/>
        <offset.disable-normalization value="true"/>
        <lefthand value="0"/>
    </processing>

    <junctions>
        <no-turnarounds value="true"/>
        <junctions.corner-detail value="5"/>
        <junctions.limit-turn-speed value="5.50"/>
        <rectangular-lane-cut value="0"/>
    </junctions>

    <pedestrian>
        <walkingareas value="0"/>
    </pedestrian>

    <netedit>
        <additional-files value="C:\Users\Paulinho\Desktop\Master-Thesis\nodes\no_via_norte_poi.xml"/>
    </netedit>

</configuration>
-->

<net version="1.9" junctionCornerDetail="5" limitTurnSpeed="5.50" xmlns:xsi="http://www.w3.org/2001/XMLSchema-instance" xsi:noNamespaceSchemaLocation="http://sumo.dlr.de/xsd/net_file.xsd">

    <location netOffset="-524914.43,-4544541.91" convBoundary="6190.56,13208.68,7070.81,13974.87" origBoundary="-8.702913,41.051318,-8.236192,41.279522" projParameter="+proj=utm +zone=29 +ellps=WGS84 +datum=WGS84 +units=m +no_defs"/>

    <type id="highway.bridleway" priority="1" numLanes="1" speed="2.78" allow="pedestrian" oneway="1" width="2.00"/>
    <type id="highway.bus_guideway" priority="1" numLanes="1" speed="27.78" allow="bus" oneway="1"/>
    <type id="highway.cycleway" priority="1" numLanes="1" speed="5.56" allow="bicycle" oneway="0" width="1.00"/>
    <type id="highway.footway" priority="1" numLanes="1" speed="2.78" allow="pedestrian" oneway="1" width="2.00"/>
    <type id="highway.ford" priority="1" numLanes="1" speed="2.78" allow="army" oneway="0"/>
    <type id="highway.living_street" priority="2" numLanes="1" speed="2.78" disallow="tram rail_urban rail rail_electric rail_fast ship" oneway="0"/>
    <type id="highway.motorway" priority="14" numLanes="2" speed="39.44" allow="private emergency authority army vip passenger hov taxi bus coach delivery truck trailer motorcycle evehicle custom1 custom2" oneway="1"/>
    <type id="highway.motorway_link" priority="9" numLanes="1" speed="22.22" allow="private emergency authority army vip passenger hov taxi bus coach delivery truck trailer motorcycle evehicle custom1 custom2" oneway="1"/>
    <type id="highway.path" priority="1" numLanes="1" speed="5.56" allow="pedestrian bicycle" oneway="0" width="2.00"/>
    <type id="highway.pedestrian" priority="1" numLanes="1" speed="2.78" allow="pedestrian" oneway="1" width="2.00"/>
    <type id="highway.primary" priority="12" numLanes="2" speed="27.78" disallow="tram rail_urban rail rail_electric rail_fast ship" oneway="0"/>
    <type id="highway.primary_link" priority="7" numLanes="1" speed="22.22" disallow="tram rail_urban rail rail_electric rail_fast ship" oneway="0"/>
    <type id="highway.raceway" priority="15" numLanes="2" speed="83.33" allow="vip" oneway="0"/>
    <type id="highway.residential" priority="3" numLanes="1" speed="13.89" disallow="tram rail_urban rail rail_electric rail_fast ship" oneway="0"/>
    <type id="highway.secondary" priority="11" numLanes="1" speed="27.78" disallow="tram rail_urban rail rail_electric rail_fast ship" oneway="0"/>
    <type id="highway.secondary_link" priority="6" numLanes="1" speed="22.22" disallow="tram rail_urban rail rail_electric rail_fast ship" oneway="0"/>
    <type id="highway.service" priority="1" numLanes="1" speed="5.56" allow="pedestrian delivery bicycle" oneway="0"/>
    <type id="highway.stairs" priority="1" numLanes="1" speed="1.39" allow="pedestrian" oneway="1" width="2.00"/>
    <type id="highway.step" priority="1" numLanes="1" speed="1.39" allow="pedestrian" oneway="1" width="2.00"/>
    <type id="highway.steps" priority="1" numLanes="1" speed="1.39" allow="pedestrian" oneway="1" width="2.00"/>
    <type id="highway.tertiary" priority="10" numLanes="1" speed="22.22" disallow="tram rail_urban rail rail_electric rail_fast ship" oneway="0"/>
    <type id="highway.tertiary_link" priority="5" numLanes="1" speed="22.22" disallow="tram rail_urban rail rail_electric rail_fast ship" oneway="0"/>
    <type id="highway.track" priority="1" numLanes="1" speed="5.56" allow="pedestrian motorcycle moped bicycle" oneway="0"/>
    <type id="highway.trunk" priority="13" numLanes="2" speed="27.78" disallow="pedestrian bicycle tram rail_urban rail rail_electric rail_fast ship" oneway="0"/>
    <type id="highway.trunk_link" priority="8" numLanes="1" speed="22.22" disallow="pedestrian bicycle tram rail_urban rail rail_electric rail_fast ship" oneway="0"/>
    <type id="highway.unclassified" priority="4" numLanes="1" speed="13.89" disallow="tram rail_urban rail rail_electric rail_fast ship" oneway="0"/>
    <type id="highway.unsurfaced" priority="1" numLanes="1" speed="8.33" disallow="tram rail_urban rail rail_electric rail_fast ship" oneway="0"/>
    <type id="railway.highspeed" priority="21" numLanes="1" speed="69.44" allow="rail_fast" oneway="1"/>
    <type id="railway.light_rail" priority="19" numLanes="1" speed="27.78" allow="rail_urban" oneway="1"/>
    <type id="railway.preserved" priority="16" numLanes="1" speed="27.78" allow="rail" oneway="1"/>
    <type id="railway.rail" priority="20" numLanes="1" speed="44.44" allow="rail" oneway="1"/>
    <type id="railway.subway" priority="18" numLanes="1" speed="27.78" allow="rail_urban" oneway="1"/>
    <type id="railway.tram" priority="17" numLanes="1" speed="13.89" allow="tram" oneway="1"/>

    <edge id=":106586101#1-AddedOnRampNode_0" function="internal">
        <lane id=":106586101#1-AddedOnRampNode_0_0" index="0" allow="private emergency authority army vip passenger hov taxi bus coach delivery truck trailer motorcycle evehicle custom1 custom2" speed="22.22" length="4.86" shape="6615.22,13567.67 6613.07,13563.33"/>
        <lane id=":106586101#1-AddedOnRampNode_0_1" index="1" allow="private emergency authority army vip passenger hov taxi bus coach delivery truck trailer motorcycle evehicle custom1 custom2" speed="22.22" length="4.86" shape="6618.09,13566.25 6615.93,13561.90"/>
    </edge>
    <edge id=":1105984386_0" function="internal">
        <lane id=":1105984386_0_0" index="0" allow="private emergency authority army vip passenger hov taxi bus coach delivery truck trailer motorcycle evehicle custom1 custom2" speed="22.22" length="9.71" shape="6728.47,13630.90 6730.54,13629.15 6731.31,13627.32 6731.91,13625.26 6733.44,13622.84"/>
    </edge>
    <edge id=":1105984390_0" function="internal">
        <lane id=":1105984390_0_0" index="0" allow="private emergency authority army vip passenger hov taxi bus coach delivery truck trailer motorcycle evehicle custom1 custom2" speed="19.45" length="2.56" shape="6718.91,13542.69 6716.37,13542.38"/>
    </edge>
    <edge id=":1105984390_1" function="internal">
        <lane id=":1105984390_1_0" index="0" allow="private emergency authority army vip passenger hov taxi bus coach delivery truck trailer motorcycle evehicle custom1 custom2" speed="22.22" length="2.99" shape="6719.40,13539.53 6716.65,13539.12"/>
        <lane id=":1105984390_1_1" index="1" allow="private emergency authority army vip passenger hov taxi bus coach delivery truck trailer motorcycle evehicle custom1 custom2" speed="22.22" length="2.99" shape="6719.89,13536.36 6716.93,13535.93"/>
        <lane id=":1105984390_1_2" index="2" allow="private emergency authority army vip passenger hov taxi bus coach delivery truck trailer motorcycle evehicle custom1 custom2" speed="22.22" length="2.99" shape="6720.37,13533.20 6717.22,13532.73"/>
    </edge>
    <edge id=":1105984398_0" function="internal">
        <lane id=":1105984398_0_0" index="0" allow="private emergency authority army vip passenger hov taxi bus coach delivery truck trailer motorcycle evehicle custom1 custom2" speed="20.83" length="3.06" shape="6746.72,13593.22 6747.17,13590.20"/>
    </edge>
    <edge id=":1105984398_1" function="internal">
        <lane id=":1105984398_1_0" index="0" disallow="pedestrian bicycle tram rail_urban rail rail_electric rail_fast ship" speed="19.44" length="2.97" shape="6749.96,13593.61 6750.34,13590.63"/>
        <lane id=":1105984398_1_1" index="1" disallow="pedestrian bicycle tram rail_urban rail rail_electric rail_fast ship" speed="19.44" length="2.97" shape="6753.14,13593.98 6753.51,13591.06"/>
    </edge>
    <edge id=":1110673412_0" function="internal">
        <lane id=":1110673412_0_0" index="0" allow="private emergency authority army vip passenger hov taxi bus coach delivery truck trailer motorcycle evehicle custom1 custom2" speed="22.22" length="0.29" shape="7008.66,13555.64 7009.01,13555.68"/>
        <lane id=":1110673412_0_1" index="1" allow="private emergency authority army vip passenger hov taxi bus coach delivery truck trailer motorcycle evehicle custom1 custom2" speed="22.22" length="0.29" shape="7008.28,13558.82 7008.59,13558.85"/>
        <lane id=":1110673412_0_2" index="2" allow="private emergency authority army vip passenger hov taxi bus coach delivery truck trailer motorcycle evehicle custom1 custom2" speed="22.22" length="0.29" shape="7007.90,13561.99 7008.17,13562.02"/>
        <lane id=":1110673412_0_3" index="3" allow="private emergency authority army vip passenger hov taxi bus coach delivery truck trailer motorcycle evehicle custom1 custom2" speed="22.22" length="0.29" shape="7007.52,13565.17 7007.75,13565.20"/>
    </edge>
    <edge id=":1110673464_0" function="internal">
        <lane id=":1110673464_0_0" index="0" allow="private emergency authority army vip passenger hov taxi bus coach delivery truck trailer motorcycle evehicle custom1 custom2" speed="22.22" length="2.83" shape="6932.71,13572.87 6929.90,13572.53"/>
    </edge>
    <edge id=":1110673464_1" function="internal">
        <lane id=":1110673464_1_0" index="0" allow="private emergency authority army vip passenger hov taxi bus coach delivery truck trailer motorcycle evehicle custom1 custom2" speed="22.22" length="3.03" shape="6933.16,13569.70 6930.25,13569.29"/>
        <lane id=":1110673464_1_1" index="1" allow="private emergency authority army vip passenger hov taxi bus coach delivery truck trailer motorcycle evehicle custom1 custom2" speed="22.22" length="3.03" shape="6933.60,13566.53 6930.60,13566.10"/>
        <lane id=":1110673464_1_2" index="2" allow="private emergency authority army vip passenger hov taxi bus coach delivery truck trailer motorcycle evehicle custom1 custom2" speed="22.22" length="3.03" shape="6934.05,13563.36 6930.95,13562.92"/>
    </edge>
    <edge id=":1110673517_0" function="internal">
        <lane id=":1110673517_0_0" index="0" allow="private emergency authority army vip passenger hov taxi bus coach delivery truck trailer motorcycle evehicle custom1 custom2" speed="22.22" length="1.61" shape="6445.25,13469.52 6445.70,13467.97"/>
        <lane id=":1110673517_0_1" index="1" allow="private emergency authority army vip passenger hov taxi bus coach delivery truck trailer motorcycle evehicle custom1 custom2" speed="22.22" length="1.61" shape="6444.87,13472.70 6445.06,13471.11"/>
    </edge>
    <edge id=":1110673534_0" function="internal">
        <lane id=":1110673534_0_0" index="0" allow="private emergency authority army vip passenger hov taxi bus coach delivery truck trailer motorcycle evehicle custom1 custom2" speed="15.28" length="10.51" shape="6764.92,13476.32 6765.19,13473.21 6765.00,13471.04 6764.55,13468.91 6764.03,13465.92"/>
    </edge>
    <edge id=":1110673534_1" function="internal">
        <lane id=":1110673534_1_0" index="0" disallow="pedestrian bicycle tram rail_urban rail rail_electric rail_fast ship" speed="16.66" length="10.97" shape="6768.09,13476.77 6768.24,13473.56 6767.88,13471.34 6767.49,13469.12 6767.58,13465.90"/>
        <lane id=":1110673534_1_1" index="1" disallow="pedestrian bicycle tram rail_urban rail rail_electric rail_fast ship" speed="16.66" length="10.97" shape="6771.26,13477.22 6771.42,13473.99 6771.05,13471.76 6770.67,13469.52 6770.76,13466.28"/>
    </edge>
    <edge id=":1110673549_0" function="internal">
        <lane id=":1110673549_0_0" index="0" allow="private emergency authority army vip passenger hov taxi bus coach delivery truck trailer motorcycle evehicle custom1 custom2" speed="22.22" length="3.17" shape="6242.67,13441.43 6243.57,13441.71 6244.19,13441.88 6244.82,13442.02 6245.74,13442.20"/>
    </edge>
    <edge id=":1110673549_1" function="internal">
        <lane id=":1110673549_1_0" index="0" allow="private emergency authority army vip passenger hov taxi bus coach delivery truck trailer motorcycle evehicle custom1 custom2" speed="22.22" length="3.36" shape="6241.73,13444.49 6244.86,13445.40"/>
        <lane id=":1110673549_1_1" index="1" allow="private emergency authority army vip passenger hov taxi bus coach delivery truck trailer motorcycle evehicle custom1 custom2" speed="22.22" length="3.36" shape="6240.78,13447.55 6244.01,13448.49"/>
        <lane id=":1110673549_1_2" index="2" allow="private emergency authority army vip passenger hov taxi bus coach delivery truck trailer motorcycle evehicle custom1 custom2" speed="22.22" length="3.36" shape="6239.84,13450.61 6243.16,13451.57"/>
    </edge>
    <edge id=":1110673561_0" function="internal">
        <lane id=":1110673561_0_0" index="0" allow="private emergency authority army vip passenger hov taxi bus coach delivery truck trailer motorcycle evehicle custom1 custom2" speed="22.22" length="2.88" shape="6994.78,13553.92 6997.63,13554.33"/>
    </edge>
    <edge id=":1110673561_1" function="internal">
        <lane id=":1110673561_1_0" index="0" allow="private emergency authority army vip passenger hov taxi bus coach delivery truck trailer motorcycle evehicle custom1 custom2" speed="22.22" length="3.00" shape="6994.34,13557.13 6997.25,13557.51"/>
        <lane id=":1110673561_1_1" index="1" allow="private emergency authority army vip passenger hov taxi bus coach delivery truck trailer motorcycle evehicle custom1 custom2" speed="22.22" length="3.00" shape="6993.90,13560.30 6996.88,13560.68"/>
        <lane id=":1110673561_1_2" index="2" allow="private emergency authority army vip passenger hov taxi bus coach delivery truck trailer motorcycle evehicle custom1 custom2" speed="22.22" length="3.00" shape="6993.46,13563.47 6996.50,13563.86"/>
    </edge>
    <edge id=":1110673562_0" function="internal">
        <lane id=":1110673562_0_0" index="0" allow="private emergency authority army vip passenger hov taxi bus coach delivery truck trailer motorcycle evehicle custom1 custom2" speed="22.22" length="3.54" shape="6662.51,13651.79 6661.58,13651.16 6660.95,13650.70 6660.37,13650.19 6659.54,13649.42"/>
        <lane id=":1110673562_0_1" index="1" allow="private emergency authority army vip passenger hov taxi bus coach delivery truck trailer motorcycle evehicle custom1 custom2" speed="22.22" length="3.54" shape="6664.29,13649.12 6663.48,13648.58 6662.95,13648.19 6662.44,13647.76 6661.74,13647.10"/>
    </edge>
    <edge id=":1110673562_2" function="internal">
        <lane id=":1110673562_2_0" index="0" allow="private emergency authority army vip passenger hov taxi bus coach delivery truck trailer motorcycle evehicle custom1 custom2" speed="22.22" length="4.34" shape="6660.88,13654.24 6659.75,13653.61 6658.99,13653.15 6658.30,13652.62 6657.34,13651.75"/>
    </edge>
    <edge id=":1110673630_0" function="internal">
        <lane id=":1110673630_0_0" index="0" allow="private emergency authority army vip passenger hov taxi bus coach delivery truck trailer motorcycle evehicle custom1 custom2" speed="22.22" length="2.94" shape="6448.06,13468.45 6450.95,13469.01"/>
    </edge>
    <edge id=":1110673630_1" function="internal">
        <lane id=":1110673630_1_0" index="0" allow="private emergency authority army vip passenger hov taxi bus coach delivery truck trailer motorcycle evehicle custom1 custom2" speed="22.22" length="3.02" shape="6447.43,13471.59 6450.39,13472.16"/>
    </edge>
    <edge id=":1110673650_0" function="internal">
        <lane id=":1110673650_0_0" index="0" disallow="pedestrian bicycle tram rail_urban rail rail_electric rail_fast ship" speed="19.44" length="1.63" shape="6752.14,13553.72 6753.77,13553.62"/>
        <lane id=":1110673650_0_1" index="1" disallow="pedestrian bicycle tram rail_urban rail rail_electric rail_fast ship" speed="19.44" length="1.63" shape="6755.31,13554.15 6756.94,13554.08"/>
        <lane id=":1110673650_0_2" index="2" disallow="pedestrian bicycle tram rail_urban rail rail_electric rail_fast ship" speed="19.44" length="1.63" shape="6758.48,13554.58 6760.11,13554.54"/>
    </edge>
    <edge id=":1110673663_0" function="internal">
        <lane id=":1110673663_0_0" index="0" allow="private emergency authority army vip passenger hov taxi bus coach delivery truck trailer motorcycle evehicle custom1 custom2" speed="18.05" length="3.05" shape="6754.52,13367.88 6756.30,13370.34"/>
    </edge>
    <edge id=":1110673663_1" function="internal">
        <lane id=":1110673663_1_0" index="0" disallow="pedestrian bicycle tram rail_urban rail rail_electric rail_fast ship" speed="16.66" length="3.15" shape="6751.86,13369.66 6752.38,13370.44 6752.72,13370.98 6753.04,13371.54 6753.49,13372.36"/>
    </edge>
    <edge id=":1110673666_0" function="internal">
        <lane id=":1110673666_0_0" index="0" allow="private emergency authority army vip passenger hov taxi bus coach delivery truck trailer motorcycle evehicle custom1 custom2" speed="18.05" length="3.26" shape="6687.66,13293.00 6687.60,13292.04 6687.53,13291.38 6687.41,13290.73 6687.19,13289.78"/>
    </edge>
    <edge id=":1110673666_1" function="internal">
        <lane id=":1110673666_1_0" index="0" disallow="pedestrian bicycle tram rail_urban rail rail_electric rail_fast ship" speed="13.89" length="3.26" shape="6691.30,13292.16 6690.94,13291.27 6690.71,13290.64 6690.53,13290.01 6690.31,13289.06"/>
    </edge>
    <edge id=":1110673670_0" function="internal">
        <lane id=":1110673670_0_0" index="0" allow="private emergency authority army vip passenger hov taxi bus coach delivery truck trailer motorcycle evehicle custom1 custom2" speed="22.22" length="8.19" shape="6397.23,13465.23 6399.63,13465.32 6401.28,13464.99 6402.93,13464.64 6405.33,13464.68"/>
        <lane id=":1110673670_0_1" index="1" allow="private emergency authority army vip passenger hov taxi bus coach delivery truck trailer motorcycle evehicle custom1 custom2" speed="22.22" length="8.19" shape="6397.23,13465.23 6399.57,13465.81 6401.08,13466.58 6402.60,13467.32 6404.95,13467.86"/>
    </edge>
    <edge id=":25504147_0" function="internal">
        <lane id=":25504147_0_0" index="0" allow="private emergency authority army vip passenger hov taxi bus coach delivery truck trailer motorcycle evehicle custom1 custom2" speed="11.11" length="9.13" shape="6758.67,13442.81 6757.80,13440.45 6757.06,13438.88 6756.09,13437.44 6754.52,13435.47"/>
        <lane id=":25504147_0_1" index="1" allow="private emergency authority army vip passenger hov taxi bus coach delivery truck trailer motorcycle evehicle custom1 custom2" speed="11.11" length="9.13" shape="6758.67,13442.81 6758.16,13439.97 6758.36,13437.83 6758.30,13435.83 6757.00,13433.45"/>
    </edge>
    <edge id=":25504157_0" function="internal">
        <lane id=":25504157_0_0" index="0" allow="private emergency authority army vip passenger hov taxi bus coach delivery truck trailer motorcycle evehicle custom1 custom2" speed="11.11" length="9.68" shape="6680.60,13505.59 6682.79,13507.18 6684.75,13507.49 6686.88,13507.58 6689.58,13508.51"/>
    </edge>
    <edge id=":25504163_0" function="internal">
        <lane id=":25504163_0_0" index="0" allow="private emergency authority army vip passenger hov taxi bus coach delivery truck trailer motorcycle evehicle custom1 custom2" speed="23.61" length="3.55" shape="6764.83,13624.51 6764.61,13625.46 6764.49,13626.11 6764.42,13626.77 6764.35,13627.74"/>
        <lane id=":25504163_0_1" index="1" allow="private emergency authority army vip passenger hov taxi bus coach delivery truck trailer motorcycle evehicle custom1 custom2" speed="23.61" length="3.55" shape="6761.72,13623.77 6761.46,13624.87 6761.32,13625.64 6761.23,13626.41 6761.16,13627.54"/>
    </edge>
    <edge id=":25504163_2" function="internal">
        <lane id=":25504163_2_0" index="0" disallow="pedestrian bicycle tram rail_urban rail rail_electric rail_fast ship" speed="22.22" length="3.71" shape="6758.27,13623.64 6757.96,13627.34"/>
    </edge>
    <edge id=":25504183_0" function="internal">
        <lane id=":25504183_0_0" index="0" allow="private emergency authority army vip passenger hov taxi bus coach delivery truck trailer motorcycle evehicle custom1 custom2" speed="23.61" length="3.18" shape="6761.07,13700.88 6760.98,13701.82 6760.93,13702.46 6760.92,13703.11 6760.93,13704.05"/>
    </edge>
    <edge id=":25504183_1" function="internal">
        <lane id=":25504183_1_0" index="0" disallow="pedestrian bicycle tram rail_urban rail rail_electric rail_fast ship" speed="25.00" length="3.49" shape="6757.77,13700.73 6757.73,13704.09"/>
        <lane id=":25504183_1_1" index="1" disallow="pedestrian bicycle tram rail_urban rail rail_electric rail_fast ship" speed="25.00" length="3.49" shape="6754.57,13700.62 6754.53,13704.12"/>
        <lane id=":25504183_1_2" index="2" disallow="pedestrian bicycle tram rail_urban rail rail_electric rail_fast ship" speed="25.00" length="3.49" shape="6751.37,13700.52 6751.33,13704.15"/>
    </edge>
    <edge id=":26015929_0" function="internal">
        <lane id=":26015929_0_0" index="0" allow="private emergency authority army vip passenger hov taxi bus coach delivery truck trailer motorcycle evehicle custom1 custom2" speed="22.22" length="3.18" shape="6555.40,13517.31 6552.22,13516.87"/>
        <lane id=":26015929_0_1" index="1" allow="private emergency authority army vip passenger hov taxi bus coach delivery truck trailer motorcycle evehicle custom1 custom2" speed="22.22" length="3.18" shape="6555.82,13514.13 6552.67,13513.70"/>
        <lane id=":26015929_0_2" index="2" allow="private emergency authority army vip passenger hov taxi bus coach delivery truck trailer motorcycle evehicle custom1 custom2" speed="22.22" length="3.18" shape="6556.23,13510.96 6553.11,13510.53"/>
    </edge>
    <edge id=":26015929_3" function="internal">
        <lane id=":26015929_3_0" index="0" allow="private emergency authority army vip passenger hov taxi bus coach delivery truck trailer motorcycle evehicle custom1 custom2" speed="22.22" length="3.24" shape="6555.00,13520.40 6551.78,13520.04"/>
    </edge>
    <edge id=":26015930_0" function="internal">
        <lane id=":26015930_0_0" index="0" allow="private emergency authority army vip passenger hov taxi bus coach delivery truck trailer motorcycle evehicle custom1 custom2" speed="22.22" length="0.30" shape="6533.36,13494.52 6533.66,13494.56"/>
        <lane id=":26015930_0_1" index="1" allow="private emergency authority army vip passenger hov taxi bus coach delivery truck trailer motorcycle evehicle custom1 custom2" speed="22.22" length="0.30" shape="6532.93,13497.69 6533.23,13497.73"/>
        <lane id=":26015930_0_2" index="2" allow="private emergency authority army vip passenger hov taxi bus coach delivery truck trailer motorcycle evehicle custom1 custom2" speed="22.22" length="0.30" shape="6532.50,13500.86 6532.79,13500.90"/>
    </edge>
    <edge id=":26016164_0" function="internal">
        <lane id=":26016164_0_0" index="0" allow="private emergency authority army vip passenger hov taxi bus coach delivery truck trailer motorcycle evehicle custom1 custom2" speed="22.22" length="1.62" shape="6740.91,13519.14 6741.05,13520.77"/>
        <lane id=":26016164_0_1" index="1" allow="private emergency authority army vip passenger hov taxi bus coach delivery truck trailer motorcycle evehicle custom1 custom2" speed="22.22" length="1.62" shape="6740.50,13522.31 6740.59,13523.94"/>
        <lane id=":26016164_0_2" index="2" allow="private emergency authority army vip passenger hov taxi bus coach delivery truck trailer motorcycle evehicle custom1 custom2" speed="22.22" length="1.62" shape="6740.09,13525.49 6740.14,13527.10"/>
        <lane id=":26016164_0_3" index="3" allow="private emergency authority army vip passenger hov taxi bus coach delivery truck trailer motorcycle evehicle custom1 custom2" speed="22.22" length="1.62" shape="6739.67,13528.66 6739.68,13530.27"/>
    </edge>
    <edge id=":3092784197_0" function="internal">
        <lane id=":3092784197_0_0" index="0" disallow="pedestrian bicycle tram rail_urban rail rail_electric rail_fast ship" speed="19.44" length="0.24" shape="6740.29,13708.26 6740.30,13707.97"/>
        <lane id=":3092784197_0_1" index="1" disallow="pedestrian bicycle tram rail_urban rail rail_electric rail_fast ship" speed="19.44" length="0.24" shape="6743.49,13708.26 6743.49,13708.08"/>
    </edge>
    <edge id=":3092784198_0" function="internal">
        <lane id=":3092784198_0_0" index="0" allow="private emergency authority army vip passenger hov taxi bus coach delivery truck trailer motorcycle evehicle custom1 custom2" speed="22.22" length="0.29" shape="6663.26,13531.34 6663.02,13531.30"/>
        <lane id=":3092784198_0_1" index="1" allow="private emergency authority army vip passenger hov taxi bus coach delivery truck trailer motorcycle evehicle custom1 custom2" speed="22.22" length="0.29" shape="6663.72,13528.17 6663.44,13528.13"/>
        <lane id=":3092784198_0_2" index="2" allow="private emergency authority army vip passenger hov taxi bus coach delivery truck trailer motorcycle evehicle custom1 custom2" speed="22.22" length="0.29" shape="6664.18,13525.00 6663.85,13524.96"/>
    </edge>
    <edge id=":3139458260_0" function="internal">
        <lane id=":3139458260_0_0" index="0" allow="private emergency authority army vip passenger hov taxi bus coach delivery truck trailer motorcycle evehicle custom1 custom2" speed="19.45" length="6.83" shape="6690.04,13542.20 6688.19,13542.76 6687.07,13543.55 6685.97,13544.45 6684.19,13545.31"/>
        <lane id=":3139458260_0_1" index="1" allow="private emergency authority army vip passenger hov taxi bus coach delivery truck trailer motorcycle evehicle custom1 custom2" speed="19.45" length="6.83" shape="6690.04,13542.20 6687.99,13542.29 6686.54,13542.03 6685.13,13541.88 6683.15,13542.29"/>
    </edge>
    <edge id=":411029256_0" function="internal">
        <lane id=":411029256_0_0" index="0" disallow="pedestrian bicycle tram rail_urban rail rail_electric rail_fast ship" speed="13.89" length="8.18" shape="6742.51,13375.75 6741.00,13373.88 6739.67,13372.84 6738.35,13371.79 6736.87,13369.90"/>
    </edge>
    <edge id=":411029259_0" function="internal">
        <lane id=":411029259_0_0" index="0" disallow="pedestrian bicycle tram rail_urban rail rail_electric rail_fast ship" speed="16.01" length="17.83" shape="6682.73,13270.43 6681.52,13265.50 6680.21,13262.19 6678.07,13259.38 6674.35,13255.98"/>
        <lane id=":411029259_0_1" index="1" disallow="pedestrian bicycle tram rail_urban rail rail_electric rail_fast ship" speed="16.57" length="17.83" shape="6685.66,13268.90 6684.32,13263.64 6682.84,13260.13 6680.46,13257.17 6676.42,13253.55"/>
    </edge>
    <edge id=":411029259_2" function="internal">
        <lane id=":411029259_2_0" index="0" disallow="tram rail_urban rail rail_electric rail_fast ship" speed="16.88" length="17.22" shape="6690.56,13263.22 6685.25,13262.57 6681.67,13261.47 6678.49,13259.44 6674.35,13255.98"/>
        <lane id=":411029259_2_1" index="1" disallow="tram rail_urban rail rail_electric rail_fast ship" speed="16.39" length="17.22" shape="6691.82,13260.11 6686.79,13259.55 6683.38,13258.60 6680.34,13256.77 6676.42,13253.55"/>
        <lane id=":411029259_2_2" index="2" disallow="tram rail_urban rail rail_electric rail_fast ship" speed="15.89" length="17.22" shape="6693.07,13257.01 6688.33,13256.52 6685.09,13255.72 6682.20,13254.09 6678.50,13251.12"/>
    </edge>
    <edge id=":411029260_0" function="internal">
        <lane id=":411029260_0_0" index="0" disallow="pedestrian bicycle tram rail_urban rail rail_electric rail_fast ship" speed="15.57" length="14.38" shape="6712.81,13256.23 6710.02,13259.42 6708.42,13261.90 6707.51,13264.72 6706.80,13268.89"/>
        <lane id=":411029260_0_1" index="1" disallow="pedestrian bicycle tram rail_urban rail rail_electric rail_fast ship" speed="16.01" length="15.24" shape="6712.81,13256.23 6709.44,13259.32 6706.80,13261.35 6704.90,13263.73 6703.72,13267.85"/>
    </edge>
    <edge id=":411029260_2" function="internal">
        <lane id=":411029260_2_0" index="0" disallow="tram rail_urban rail rail_electric rail_fast ship" speed="15.98" length="15.07" shape="6712.81,13256.23 6709.46,13259.48 6706.64,13261.12 6703.38,13261.99 6698.70,13262.93"/>
        <lane id=":411029260_2_1" index="1" disallow="tram rail_urban rail rail_electric rail_fast ship" speed="15.48" length="15.07" shape="6710.45,13254.07 6707.28,13257.06 6704.59,13258.48 6701.49,13259.18 6697.08,13260.01"/>
        <lane id=":411029260_2_2" index="2" disallow="tram rail_urban rail rail_electric rail_fast ship" speed="14.97" length="15.07" shape="6708.09,13251.91 6705.11,13254.64 6702.55,13255.84 6699.60,13256.37 6695.46,13257.09"/>
    </edge>
    <edge id=":411029269_0" function="internal">