<?xml version='1.0' encoding='UTF-8'?>
<additional>
	<calibrator id="calib_1" edge="447753518" pos="20" output="./output" />
	<calibrator id="calib_2" edge="474423858-AddedOffRampEdge" pos="20" output="./output" />
	<calibrator id="calib_3" edge="703196298" pos="20" output="./output" />
	<calibrator id="calib_4" edge="105013171#2" pos="20" output="./output" />
	<calibrator id="calib_5" edge="35047582" pos="20" output="./output" />
	<calibrator id="calib_6" edge="35446605" pos="20" output="./output" />
	<calibrator id="calib_7" edge="35006697" pos="20" output="./output" />
	<calibrator id="calib_8" edge="859507145" pos="20" output="./output" />
	<calibrator id="calib_9" edge="95127165#4" pos="20" output="./output" />
	<calibrator id="calib_10" edge="98835845#1-AddedOnRampEdge" pos="20" output="./output" />
	<calibrator id="calib_11" edge="95162996" pos="20" output="./output" />
	<calibrator id="calib_12" edge="95162996" pos="20" output="./output" />
	<calibrator id="calib_13" edge="97721366" pos="20" output="./output" />
	<calibrator id="calib_14" edge="96192036" pos="20" output="./output" />
	<calibrator id="calib_15" edge="29043402" pos="20" output="./output" />
	<calibrator id="calib_16" edge="95984874" pos="20" output="./output" />
	<calibrator id="calib_17" edge="478886770" pos="20" output="./output" />
	<calibrator id="calib_18" edge="381421950" pos="20" output="./output" />
	<calibrator id="calib_19" edge="95163009" pos="20" output="./output" />
	<calibrator id="calib_20" edge="381421954" pos="20" output="./output" />
	<calibrator id="calib_21" edge="95162996" pos="20" output="./output" />
	<calibrator id="calib_22" edge="95117812#2" pos="20" output="./output" />
	<calibrator id="calib_23" edge="712274397#1" pos="20" output="./output" />
	<calibrator id="calib_24" edge="712274397#1" pos="20" output="./output" />
	<calibrator id="calib_25" edge="712274397#1" pos="20" output="./output" />
	<calibrator id="calib_26" edge="712274397#1" pos="20" output="./output" />
	<calibrator id="calib_27" edge="712274397#1" pos="20" output="./output" />
	<calibrator id="calib_28" edge="95117787#0" pos="20" output="./output" />
	<calibrator id="calib_29" edge="95117787#0" pos="20" output="./output" />
	<calibrator id="calib_30" edge="474423808#0" pos="20" output="./output" />
	<calibrator id="calib_31" edge="139462615#0" pos="20" output="./output" />
	<calibrator id="calib_32" edge="479365566-AddedOffRampEdge" pos="20" output="./output" />
	<calibrator id="calib_33" edge="151516198" pos="20" output="./output" />
	<calibrator id="calib_34" edge="95374583#1-AddedOnRampEdge" pos="20" output="./output" />
	<calibrator id="calib_35" edge="29043523" pos="20" output="./output" />
	<calibrator id="calib_36" edge="35044065" pos="20" output="./output" />
	<calibrator id="calib_37" edge="479365566-AddedOffRampEdge" pos="20" output="./output" />
	<calibrator id="calib_38" edge="139462593" pos="20" output="./output" />
	<calibrator id="calib_39" edge="95367763#0" pos="20" output="./output" />
	<calibrator id="calib_40" edge="139455445" pos="20" output="./output" />
	<calibrator id="calib_41" edge="95367763#0" pos="20" output="./output" />
	<calibrator id="calib_42" edge="712274397#1" pos="20" output="./output" />
	<calibrator id="calib_43" edge="29036509" pos="20" output="./output" />
	<calibrator id="calib_44" edge="95367752#2" pos="20" output="./output" />
	<calibrator id="calib_45" edge="95367752#2" pos="20" output="./output" />
	<calibrator id="calib_46" edge="95367752#2" pos="20" output="./output" />
	<calibrator id="calib_47" edge="95367752#2" pos="20" output="./output" />
	<calibrator id="calib_48" edge="139462593" pos="20" output="./output" />
	<calibrator id="calib_49" edge="557707270" pos="20" output="./output" />
	<calibrator id="calib_50" edge="95367752#1" pos="20" output="./output" />
	<calibrator id="calib_51" edge="461173094" pos="20" output="./output" />
	<calibrator id="calib_52" edge="95367763#1" pos="20" output="./output" />
	<calibrator id="calib_53" edge="483715765" pos="20" output="./output" />
	<calibrator id="calib_54" edge="37406652-AddedOffRampEdge" pos="20" output="./output" />
	<calibrator id="calib_55" edge="95127165#4" pos="20" output="./output" />
	<calibrator id="calib_56" edge="478882416" pos="20" output="./output" />
	<calibrator id="calib_57" edge="-252253611" pos="20" output="./output" />
	<calibrator id="calib_58" edge="95367763#1" pos="20" output="./output" />
	<calibrator id="calib_59" edge="95367763#1" pos="20" output="./output" />
	<calibrator id="calib_60" edge="483715765" pos="20" output="./output" />
	<calibrator id="calib_61" edge="95367752#2" pos="20" output="./output" />
	<calibrator id="calib_62" edge="29036509" pos="20" output="./output" />
	<calibrator id="calib_63" edge="95367752#1" pos="20" output="./output" />
</additional>