<additional>
	<calibrator id="calib_1" edge="139462593" pos="30" output="./output" />
	<calibrator id="calib_2" edge="96192036" pos="30" output="./output" />
	<calibrator id="calib_3" edge="35446605" pos="30" output="./output" />
	<calibrator id="calib_4" edge="478886770" pos="30" output="./output" />
	<calibrator id="calib_5" edge="35006697" pos="30" output="./output" />
	<calibrator id="calib_6" edge="478882416" pos="30" output="./output" />
	<calibrator id="calib_7" edge="479365566-AddedOffRampEdge" pos="30" output="./output" />
	<calibrator id="calib_8" edge="35047582" pos="30" output="./output" />
	<calibrator id="calib_9" edge="29043402" pos="30" output="./output" />
	<calibrator id="calib_10" edge="95984874" pos="30" output="./output" />
	<calibrator id="calib_11" edge="151516198" pos="30" output="./output" />
	<calibrator id="calib_12" edge="97721366" pos="30" output="./output" />
	<calibrator id="calib_13" edge="95374583#1-AddedOnRampEdge" pos="30" output="./output" />
	<calibrator id="calib_14" edge="859507145" pos="30" output="./output" />
	<calibrator id="calib_15" edge="95127165#4" pos="30" output="./output" />
	<calibrator id="calib_16" edge="95162996" pos="30" output="./output" />
	<calibrator id="calib_17" edge="98835845#1-AddedOnRampEdge" pos="30" output="./output" />
	<calibrator id="calib_18" edge="381421950" pos="30" output="./output" />
</additional>