<?xml version='1.0' encoding='UTF-8'?>
<additional>
	<calibrator id="calib_1" edge="447753518" pos="20" output="./output/calibrator_1.xml" />
	<calibrator id="calib_2" edge="29036547" pos="20" output="./output/calibrator_2.xml" />
	<calibrator id="calib_3" edge="474423858-AddedOffRampEdge" pos="20" output="./output/calibrator_3.xml" />
	<calibrator id="calib_4" edge="703196298" pos="20" output="./output/calibrator_4.xml" />
	<calibrator id="calib_5" edge="105013171#2" pos="20" output="./output/calibrator_5.xml" />
	<calibrator id="calib_6" edge="35047582" pos="20" output="./output/calibrator_6.xml" />
	<calibrator id="calib_7" edge="35446605" pos="20" output="./output/calibrator_7.xml" />
	<calibrator id="calib_8" edge="35006697" pos="20" output="./output/calibrator_8.xml" />
	<calibrator id="calib_9" edge="859507145" pos="20" output="./output/calibrator_9.xml" />
	<calibrator id="calib_10" edge="95127165#4" pos="20" output="./output/calibrator_10.xml" />
	<calibrator id="calib_11" edge="98835845#1-AddedOnRampEdge" pos="20" output="./output/calibrator_11.xml" />
	<calibrator id="calib_12" edge="95162996" pos="20" output="./output/calibrator_12.xml" />
	<calibrator id="calib_13" edge="95162996" pos="20" output="./output/calibrator_13.xml" />
	<calibrator id="calib_14" edge="97721366" pos="20" output="./output/calibrator_14.xml" />
	<calibrator id="calib_15" edge="96192036" pos="20" output="./output/calibrator_15.xml" />
	<calibrator id="calib_16" edge="29043402" pos="20" output="./output/calibrator_16.xml" />
	<calibrator id="calib_17" edge="95984874" pos="20" output="./output/calibrator_17.xml" />
	<calibrator id="calib_18" edge="478886770" pos="20" output="./output/calibrator_18.xml" />
	<calibrator id="calib_19" edge="381421950" pos="20" output="./output/calibrator_19.xml" />
	<calibrator id="calib_20" edge="95984874" pos="20" output="./output/calibrator_20.xml" />
	<calibrator id="calib_21" edge="95163009" pos="20" output="./output/calibrator_21.xml" />
	<calibrator id="calib_22" edge="381421954" pos="20" output="./output/calibrator_22.xml" />
	<calibrator id="calib_23" edge="95162996" pos="20" output="./output/calibrator_23.xml" />
	<calibrator id="calib_24" edge="95117812#2" pos="20" output="./output/calibrator_24.xml" />
	<calibrator id="calib_25" edge="712274397#1" pos="20" output="./output/calibrator_25.xml" />
	<calibrator id="calib_26" edge="712274397#1" pos="20" output="./output/calibrator_26.xml" />
	<calibrator id="calib_27" edge="712274397#1" pos="20" output="./output/calibrator_27.xml" />
	<calibrator id="calib_28" edge="712274397#1" pos="20" output="./output/calibrator_28.xml" />
	<calibrator id="calib_29" edge="712274397#1" pos="20" output="./output/calibrator_29.xml" />
	<calibrator id="calib_30" edge="95117787#0" pos="20" output="./output/calibrator_30.xml" />
	<calibrator id="calib_31" edge="95117787#0" pos="20" output="./output/calibrator_31.xml" />
	<calibrator id="calib_32" edge="474423808#0" pos="20" output="./output/calibrator_32.xml" />
	<calibrator id="calib_33" edge="508107814" pos="20" output="./output/calibrator_33.xml" />
	<calibrator id="calib_34" edge="95984874" pos="20" output="./output/calibrator_34.xml" />
	<calibrator id="calib_35" edge="139462615#0" pos="20" output="./output/calibrator_35.xml" />
	<calibrator id="calib_36" edge="479365566-AddedOffRampEdge" pos="20" output="./output/calibrator_36.xml" />
	<calibrator id="calib_37" edge="151516198" pos="20" output="./output/calibrator_37.xml" />
	<calibrator id="calib_38" edge="95374583#1-AddedOnRampEdge" pos="20" output="./output/calibrator_38.xml" />
	<calibrator id="calib_39" edge="29043523" pos="20" output="./output/calibrator_39.xml" />
	<calibrator id="calib_40" edge="35044065" pos="20" output="./output/calibrator_40.xml" />
	<calibrator id="calib_41" edge="479365566-AddedOffRampEdge" pos="20" output="./output/calibrator_41.xml" />
	<calibrator id="calib_42" edge="478882418" pos="20" output="./output/calibrator_42.xml" />
	<calibrator id="calib_43" edge="27292207#0" pos="20" output="./output/calibrator_43.xml" />
	<calibrator id="calib_44" edge="139462593" pos="20" output="./output/calibrator_44.xml" />
	<calibrator id="calib_45" edge="95367763#0" pos="20" output="./output/calibrator_45.xml" />
	<calibrator id="calib_46" edge="139455445" pos="20" output="./output/calibrator_46.xml" />
	<calibrator id="calib_47" edge="95367763#0" pos="20" output="./output/calibrator_47.xml" />
	<calibrator id="calib_48" edge="712274397#1" pos="20" output="./output/calibrator_48.xml" />
	<calibrator id="calib_49" edge="29036509" pos="20" output="./output/calibrator_49.xml" />
	<calibrator id="calib_50" edge="480148045#0" pos="20" output="./output/calibrator_50.xml" />
	<calibrator id="calib_51" edge="95367752#2" pos="20" output="./output/calibrator_51.xml" />
	<calibrator id="calib_52" edge="95367752#2" pos="20" output="./output/calibrator_52.xml" />
	<calibrator id="calib_53" edge="95367752#2" pos="20" output="./output/calibrator_53.xml" />
	<calibrator id="calib_54" edge="95367752#2" pos="20" output="./output/calibrator_54.xml" />
	<calibrator id="calib_55" edge="139462593" pos="20" output="./output/calibrator_55.xml" />
	<calibrator id="calib_56" edge="557707270" pos="20" output="./output/calibrator_56.xml" />
	<calibrator id="calib_57" edge="95367752#1" pos="20" output="./output/calibrator_57.xml" />
	<calibrator id="calib_58" edge="461173094" pos="20" output="./output/calibrator_58.xml" />
	<calibrator id="calib_59" edge="95367763#1" pos="20" output="./output/calibrator_59.xml" />
	<calibrator id="calib_60" edge="483715765" pos="20" output="./output/calibrator_60.xml" />
	<calibrator id="calib_61" edge="37406652-AddedOffRampEdge" pos="20" output="./output/calibrator_61.xml" />
	<calibrator id="calib_62" edge="95127165#4" pos="20" output="./output/calibrator_62.xml" />
	<calibrator id="calib_63" edge="35006697" pos="20" output="./output/calibrator_63.xml" />
	<calibrator id="calib_64" edge="95984874" pos="20" output="./output/calibrator_64.xml" />
	<calibrator id="calib_65" edge="478882416" pos="20" output="./output/calibrator_65.xml" />
	<calibrator id="calib_66" edge="-252253611" pos="20" output="./output/calibrator_66.xml" />
	<calibrator id="calib_67" edge="95367763#1" pos="20" output="./output/calibrator_67.xml" />
	<calibrator id="calib_68" edge="95367763#1" pos="20" output="./output/calibrator_68.xml" />
	<calibrator id="calib_69" edge="483715765" pos="20" output="./output/calibrator_69.xml" />
	<calibrator id="calib_70" edge="95367752#2" pos="20" output="./output/calibrator_70.xml" />
	<calibrator id="calib_71" edge="29036509" pos="20" output="./output/calibrator_71.xml" />
	<calibrator id="calib_72" edge="95367752#1" pos="20" output="./output/calibrator_72.xml" />
</additional>