<?xml version='1.0' encoding='UTF-8'?>
<additional>
	<calibrator id="calib_car_1147305122" vTypes="vtype_car" edge="1082071543" pos="0" jamThreshold="0.5" output="./output/calibrator_car_1147305122.xml" />
	<calibrator id="calib_truck_1147305122" vTypes="vtype_truck" edge="1082071543" pos="0" jamThreshold="0.5" output="./output/calibrator_truck_1147305122.xml" />
	<calibrator id="calib_car_2070590395" vTypes="vtype_car" edge="196767730" pos="0" jamThreshold="0.5" output="./output/calibrator_car_2070590395.xml" />
	<calibrator id="calib_truck_2070590395" vTypes="vtype_truck" edge="196767730" pos="0" jamThreshold="0.5" output="./output/calibrator_truck_2070590395.xml" />
	<calibrator id="calib_car_269351989" vTypes="vtype_car" edge="474423812" pos="0" jamThreshold="0.5" output="./output/calibrator_car_269351989.xml" />
	<calibrator id="calib_truck_269351989" vTypes="vtype_truck" edge="474423812" pos="0" jamThreshold="0.5" output="./output/calibrator_truck_269351989.xml" />
	<calibrator id="calib_car_685276223" vTypes="vtype_car" edge="95841103#1-AddedOnRampEdge" pos="0" jamThreshold="0.5" output="./output/calibrator_car_685276223.xml" />
	<calibrator id="calib_truck_685276223" vTypes="vtype_truck" edge="95841103#1-AddedOnRampEdge" pos="0" jamThreshold="0.5" output="./output/calibrator_truck_685276223.xml" />
</additional>