<?xml version='1.0' encoding='UTF-8'?>
<additional>
	<calibrator id="calib_319327528" edge="140054045" pos="0" output="./output/calibrator_319327528.xml" />
	<calibrator id="calib_3693345069" edge="485343202" pos="0" output="./output/calibrator_3693345069.xml" />
	<calibrator id="calib_124375189" edge="95374606" pos="0" output="./output/calibrator_124375189.xml" />
</additional>