<?xml version='1.0' encoding='UTF-8'?>
<additional>
	<calibrator id="calib_car_139455413-AddedOffRampNode" vTypes="vtype_car" edge="139455413-AddedOffRampEdge" pos="0" jamThreshold="0.5" output="./output/calibrator_car_139455413-AddedOffRampNode.xml" />
	<calibrator id="calib_truck_139455413-AddedOffRampNode" vTypes="vtype_truck" edge="139455413-AddedOffRampEdge" pos="0" jamThreshold="0.5" output="./output/calibrator_truck_139455413-AddedOffRampNode.xml" />
	<calibrator id="calib_car_26735732#0-AddedOffRampNode" vTypes="vtype_car" edge="26735732#0-AddedOffRampEdge" pos="0" jamThreshold="0.5" output="./output/calibrator_car_26735732#0-AddedOffRampNode.xml" />
	<calibrator id="calib_truck_26735732#0-AddedOffRampNode" vTypes="vtype_truck" edge="26735732#0-AddedOffRampEdge" pos="0" jamThreshold="0.5" output="./output/calibrator_truck_26735732#0-AddedOffRampNode.xml" />
	<calibrator id="calib_car_26735829#0-AddedOffRampNode" vTypes="vtype_car" edge="26735829#0-AddedOffRampEdge" pos="0" jamThreshold="0.5" output="./output/calibrator_car_26735829#0-AddedOffRampNode.xml" />
	<calibrator id="calib_truck_26735829#0-AddedOffRampNode" vTypes="vtype_truck" edge="26735829#0-AddedOffRampEdge" pos="0" jamThreshold="0.5" output="./output/calibrator_truck_26735829#0-AddedOffRampNode.xml" />
	<calibrator id="calib_car_1103406350" vTypes="vtype_car" edge="95117801" pos="0" jamThreshold="0.5" output="./output/calibrator_car_1103406350.xml" />
	<calibrator id="calib_truck_1103406350" vTypes="vtype_truck" edge="95117801" pos="0" jamThreshold="0.5" output="./output/calibrator_truck_1103406350.xml" />
</additional>