<?xml version='1.0' encoding='UTF-8'?>
<additional>
	<calibrator id="calib_car_cluster_413301124_415406351" vTypes="vtype_car" edge="496736162" pos="0" jamThreshold="0.5" output="./output/calibrator_car_cluster_413301124_415406351.xml" />
	<calibrator id="calib_truck_cluster_413301124_415406351" vTypes="vtype_truck" edge="496736162" pos="0" jamThreshold="0.5" output="./output/calibrator_truck_cluster_413301124_415406351.xml" />
	<calibrator id="calib_car_412525204" vTypes="vtype_car" edge="124718134" pos="0" jamThreshold="0.5" output="./output/calibrator_car_412525204.xml" />
	<calibrator id="calib_truck_412525204" vTypes="vtype_truck" edge="124718134" pos="0" jamThreshold="0.5" output="./output/calibrator_truck_412525204.xml" />
	<calibrator id="calib_car_35043629#0-AddedOnRampNode" vTypes="vtype_car" edge="35043629#0" pos="0" jamThreshold="0.5" output="./output/calibrator_car_35043629#0-AddedOnRampNode.xml" />
	<calibrator id="calib_truck_35043629#0-AddedOnRampNode" vTypes="vtype_truck" edge="35043629#0" pos="0" jamThreshold="0.5" output="./output/calibrator_truck_35043629#0-AddedOnRampNode.xml" />
	<calibrator id="calib_car_26015872" vTypes="vtype_car" edge="480146192" pos="0" jamThreshold="0.5" output="./output/calibrator_car_26015872.xml" />
	<calibrator id="calib_truck_26015872" vTypes="vtype_truck" edge="480146192" pos="0" jamThreshold="0.5" output="./output/calibrator_truck_26015872.xml" />
	<calibrator id="calib_car_25507561" vTypes="vtype_car" edge="480148045#0" pos="0" jamThreshold="0.5" output="./output/calibrator_car_25507561.xml" />
	<calibrator id="calib_truck_25507561" vTypes="vtype_truck" edge="480148045#0" pos="0" jamThreshold="0.5" output="./output/calibrator_truck_25507561.xml" />
</additional>