<?xml version='1.0' encoding='UTF-8'?>
<additional>
	<calibrator id="calib_car_J0" vTypes="vtype_car" edge="108390767" pos="0" jamThreshold="0.5" output="./output/calibrator_car_J0.xml" />
	<calibrator id="calib_truck_J0" vTypes="vtype_truck" edge="108390767" pos="0" jamThreshold="0.5" output="./output/calibrator_truck_J0.xml" />
	<calibrator id="calib_car_112594236" vTypes="vtype_car" edge="12386249" pos="0" jamThreshold="0.5" output="./output/calibrator_car_112594236.xml" />
	<calibrator id="calib_truck_112594236" vTypes="vtype_truck" edge="12386249" pos="0" jamThreshold="0.5" output="./output/calibrator_truck_112594236.xml" />
	<calibrator id="calib_car_4008074959" vTypes="vtype_car" edge="398030856" pos="0" jamThreshold="0.5" output="./output/calibrator_car_4008074959.xml" />
	<calibrator id="calib_truck_4008074959" vTypes="vtype_truck" edge="398030856" pos="0" jamThreshold="0.5" output="./output/calibrator_truck_4008074959.xml" />
	<calibrator id="calib_car_497870374" vTypes="vtype_car" edge="453763790" pos="0" jamThreshold="0.5" output="./output/calibrator_car_497870374.xml" />
	<calibrator id="calib_truck_497870374" vTypes="vtype_truck" edge="453763790" pos="0" jamThreshold="0.5" output="./output/calibrator_truck_497870374.xml" />
	<calibrator id="calib_car_26016426" vTypes="vtype_car" edge="479127855" pos="0" jamThreshold="0.5" output="./output/calibrator_car_26016426.xml" />
	<calibrator id="calib_truck_26016426" vTypes="vtype_truck" edge="479127855" pos="0" jamThreshold="0.5" output="./output/calibrator_truck_26016426.xml" />
</additional>