<?xml version='1.0' encoding='UTF-8'?>
<additional>
	<calibrator id="calib_cluster_413301124_415406351" edge="496736162" pos="0" output="./output/calibrator_cluster_413301124_415406351.xml" />
	<calibrator id="calib_412525204" edge="124718134" pos="0" output="./output/calibrator_412525204.xml" />
	<calibrator id="calib_35043629#0-AddedOnRampNode" edge="35043629#0" pos="0" output="./output/calibrator_35043629#0-AddedOnRampNode.xml" />
	<calibrator id="calib_26015872" edge="480146192" pos="0" output="./output/calibrator_26015872.xml" />
	<calibrator id="calib_25507561" edge="480148045#0" pos="0" output="./output/calibrator_25507561.xml" />
</additional>