<?xml version='1.0' encoding='UTF-8'?>
<additional>
	<calibrator id="calib_car_1143316916" vTypes="vtype_car" edge="-98835887" pos="0" jamThreshold="0.5" output="./output/calibrator_car_1143316916.xml" />
	<calibrator id="calib_truck_1143316916" vTypes="vtype_truck" edge="-98835887" pos="0" jamThreshold="0.5" output="./output/calibrator_truck_1143316916.xml" />
	<calibrator id="calib_car_1147305736" vTypes="vtype_car" edge="474423810" pos="0" jamThreshold="0.5" output="./output/calibrator_car_1147305736.xml" />
	<calibrator id="calib_truck_1147305736" vTypes="vtype_truck" edge="474423810" pos="0" jamThreshold="0.5" output="./output/calibrator_truck_1147305736.xml" />
	<calibrator id="calib_car_546895481-AddedOffRampNode" vTypes="vtype_car" edge="546895481-AddedOffRampEdge" pos="0" jamThreshold="0.5" output="./output/calibrator_car_546895481-AddedOffRampNode.xml" />
	<calibrator id="calib_truck_546895481-AddedOffRampNode" vTypes="vtype_truck" edge="546895481-AddedOffRampEdge" pos="0" jamThreshold="0.5" output="./output/calibrator_truck_546895481-AddedOffRampNode.xml" />
	<calibrator id="calib_car_1103406460" vTypes="vtype_car" edge="95117787#0" pos="0" jamThreshold="0.5" output="./output/calibrator_car_1103406460.xml" />
	<calibrator id="calib_truck_1103406460" vTypes="vtype_truck" edge="95117787#0" pos="0" jamThreshold="0.5" output="./output/calibrator_truck_1103406460.xml" />
</additional>