<?xml version='1.0' encoding='UTF-8'?>
<additional>
	<calibrator id="calib_car_35006697-AddedOnRampNode" vTypes="vtype_car" edge="35006697" pos="267.97" jamThreshold="0.5" output="./output/calibrator_car_35006697-AddedOnRampNode.xml" />
	<calibrator id="calib_truck_35006697-AddedOnRampNode" vTypes="vtype_truck" edge="35006697" pos="267.97" jamThreshold="0.5" output="./output/calibrator_truck_35006697-AddedOnRampNode.xml" />
	<calibrator id="calib_car_3713816546" vTypes="vtype_car" edge="367461723" pos="98.3" jamThreshold="0.5" output="./output/calibrator_car_3713816546.xml" />
	<calibrator id="calib_truck_3713816546" vTypes="vtype_truck" edge="367461723" pos="98.3" jamThreshold="0.5" output="./output/calibrator_truck_3713816546.xml" />
	<calibrator id="calib_car_128583855" vTypes="vtype_car" edge="478886779" pos="331.59" jamThreshold="0.5" output="./output/calibrator_car_128583855.xml" />
	<calibrator id="calib_truck_128583855" vTypes="vtype_truck" edge="478886779" pos="331.59" jamThreshold="0.5" output="./output/calibrator_truck_128583855.xml" />
</additional>