<?xml version='1.0' encoding='UTF-8'?>
<additional>
	<calibrator id="calib_258206488#1-AddedOffRampNode" edge="258206488#1-AddedOffRampEdge" pos="0" output="./output/calibrator_258206488#1-AddedOffRampNode.xml" />
	<calibrator id="calib_26016465" edge="447313532" pos="0" output="./output/calibrator_26016465.xml" />
	<calibrator id="calib_460986038-AddedOffRampNode" edge="460986038-AddedOffRampEdge" pos="0" output="./output/calibrator_460986038-AddedOffRampNode.xml" />
</additional>