<?xml version='1.0' encoding='UTF-8'?>
<additional>
	<calibrator id="calib_car_130075494" vTypes="vtype_car" edge="478886770" pos="0" jamThreshold="0.5" output="./output/calibrator_car_130075494.xml" />
	<calibrator id="calib_truck_130075494" vTypes="vtype_truck" edge="478886770" pos="0" jamThreshold="0.5" output="./output/calibrator_truck_130075494.xml" />
	<calibrator id="calib_car_4720708100" vTypes="vtype_car" edge="478886776" pos="0" jamThreshold="0.5" output="./output/calibrator_car_4720708100.xml" />
	<calibrator id="calib_truck_4720708100" vTypes="vtype_truck" edge="478886776" pos="0" jamThreshold="0.5" output="./output/calibrator_truck_4720708100.xml" />
	<calibrator id="calib_car_5307690020" vTypes="vtype_car" edge="536714314#0" pos="0" jamThreshold="0.5" output="./output/calibrator_car_5307690020.xml" />
	<calibrator id="calib_truck_5307690020" vTypes="vtype_truck" edge="536714314#0" pos="0" jamThreshold="0.5" output="./output/calibrator_truck_5307690020.xml" />
	<calibrator id="calib_car_1352663666" vTypes="vtype_car" edge="549444981#0" pos="0" jamThreshold="0.5" output="./output/calibrator_car_1352663666.xml" />
	<calibrator id="calib_truck_1352663666" vTypes="vtype_truck" edge="549444981#0" pos="0" jamThreshold="0.5" output="./output/calibrator_truck_1352663666.xml" />
</additional>