<?xml version='1.0' encoding='UTF-8'?>
<additional>
	<calibrator id="calib_car_126581609" vTypes="vtype_car" edge="13713923#2" pos="124.27" jamThreshold="0.5" output="./output/calibrator_car_126581609.xml" />
	<calibrator id="calib_truck_126581609" vTypes="vtype_truck" edge="13713923#2" pos="124.27" jamThreshold="0.5" output="./output/calibrator_truck_126581609.xml" />
	<calibrator id="calib_car_26016438" vTypes="vtype_car" edge="453955769" pos="508.35" jamThreshold="0.5" output="./output/calibrator_car_26016438.xml" />
	<calibrator id="calib_truck_26016438" vTypes="vtype_truck" edge="453955769" pos="508.35" jamThreshold="0.5" output="./output/calibrator_truck_26016438.xml" />
	<calibrator id="calib_car_479127845-AddedOffRampNode" vTypes="vtype_car" edge="479127845-AddedOffRampEdge" pos="98.49" jamThreshold="0.5" output="./output/calibrator_car_479127845-AddedOffRampNode.xml" />
	<calibrator id="calib_truck_479127845-AddedOffRampNode" vTypes="vtype_truck" edge="479127845-AddedOffRampEdge" pos="98.49" jamThreshold="0.5" output="./output/calibrator_truck_479127845-AddedOffRampNode.xml" />
</additional>