<?xml version='1.0' encoding='UTF-8'?>
<additional>
	<calibrator id="calib_1143316916" edge="-98835887" pos="0" output="./output/calibrator_1143316916.xml" />
	<calibrator id="calib_1147305736" edge="474423810" pos="0" output="./output/calibrator_1147305736.xml" />
	<calibrator id="calib_546895481-AddedOffRampNode" edge="546895481-AddedOffRampEdge" pos="0" output="./output/calibrator_546895481-AddedOffRampNode.xml" />
	<calibrator id="calib_1103406460" edge="95117787#0" pos="0" output="./output/calibrator_1103406460.xml" />
</additional>