<?xml version='1.0' encoding='UTF-8'?>
<additional>
	<calibrator id="calib_1146570357" edge="405899851" pos="0" output="./output/calibrator_1146570357.xml" />
	<calibrator id="calib_1147305927" edge="474423785" pos="0" output="./output/calibrator_1147305927.xml" />
	<calibrator id="calib_4449523991" edge="703196298" pos="0" output="./output/calibrator_4449523991.xml" />
	<calibrator id="calib_95367752#1-AddedOffRampNode" edge="95367752#1-AddedOffRampEdge" pos="0" output="./output/calibrator_95367752#1-AddedOffRampNode.xml" />
</additional>