<?xml version='1.0' encoding='UTF-8'?>
<additional>
	<calibrator id="calib_car_12300807-AddedOffRampNode" vTypes="vtype_car" edge="12300807-AddedOffRampEdge" pos="83.36" jamThreshold="0.5" output="./output/calibrator_car_12300807-AddedOffRampNode.xml" />
	<calibrator id="calib_truck_12300807-AddedOffRampNode" vTypes="vtype_truck" edge="12300807-AddedOffRampEdge" pos="83.36" jamThreshold="0.5" output="./output/calibrator_truck_12300807-AddedOffRampNode.xml" />
	<calibrator id="calib_car_4718386259" vTypes="vtype_car" edge="453955770" pos="327.6" jamThreshold="0.5" output="./output/calibrator_car_4718386259.xml" />
	<calibrator id="calib_truck_4718386259" vTypes="vtype_truck" edge="453955770" pos="327.6" jamThreshold="0.5" output="./output/calibrator_truck_4718386259.xml" />
	<calibrator id="calib_car_1110673417" vTypes="vtype_car" edge="95841106" pos="937.68" jamThreshold="0.5" output="./output/calibrator_car_1110673417.xml" />
	<calibrator id="calib_truck_1110673417" vTypes="vtype_truck" edge="95841106" pos="937.68" jamThreshold="0.5" output="./output/calibrator_truck_1110673417.xml" />
	<calibrator id="calib_car_1110673655" vTypes="vtype_car" edge="95841135" pos="328.44" jamThreshold="0.5" output="./output/calibrator_car_1110673655.xml" />
	<calibrator id="calib_truck_1110673655" vTypes="vtype_truck" edge="95841135" pos="328.44" jamThreshold="0.5" output="./output/calibrator_truck_1110673655.xml" />
</additional>