<?xml version='1.0' encoding='UTF-8'?>
<additional>
	<calibrator id="calib_car_1528762191" vTypes="vtype_car" edge="139455413" pos="0" jamThreshold="0.5" output="./output/calibrator_car_1528762191.xml" />
	<calibrator id="calib_truck_1528762191" vTypes="vtype_truck" edge="139455413" pos="0" jamThreshold="0.5" output="./output/calibrator_truck_1528762191.xml" />
	<calibrator id="calib_car_26735732#0-AddedOffRampNode" vTypes="vtype_car" edge="26735732#0-AddedOffRampEdge" pos="0" jamThreshold="0.5" output="./output/calibrator_car_26735732#0-AddedOffRampNode.xml" />
	<calibrator id="calib_truck_26735732#0-AddedOffRampNode" vTypes="vtype_truck" edge="26735732#0-AddedOffRampEdge" pos="0" jamThreshold="0.5" output="./output/calibrator_truck_26735732#0-AddedOffRampNode.xml" />
	<calibrator id="calib_car_1112073325" vTypes="vtype_car" edge="26735829#0" pos="0" jamThreshold="0.5" output="./output/calibrator_car_1112073325.xml" />
	<calibrator id="calib_truck_1112073325" vTypes="vtype_truck" edge="26735829#0" pos="0" jamThreshold="0.5" output="./output/calibrator_truck_1112073325.xml" />
	<calibrator id="calib_car_95098677#2-AddedOnRampNode" vTypes="vtype_car" edge="95098677#2" pos="0" jamThreshold="0.5" output="./output/calibrator_car_95098677#2-AddedOnRampNode.xml" />
	<calibrator id="calib_truck_95098677#2-AddedOnRampNode" vTypes="vtype_truck" edge="95098677#2" pos="0" jamThreshold="0.5" output="./output/calibrator_truck_95098677#2-AddedOnRampNode.xml" />
</additional>