<?xml version='1.0' encoding='UTF-8'?>
<additional>
	<calibrator id="calib_car_3231579979" vTypes="vtype_car" edge="-316967086" pos="146.53" jamThreshold="0.5" output="./output/calibrator_car_3231579979.xml" />
	<calibrator id="calib_truck_3231579979" vTypes="vtype_truck" edge="-316967086" pos="146.53" jamThreshold="0.5" output="./output/calibrator_truck_3231579979.xml" />
	<calibrator id="calib_car_9376306390" vTypes="vtype_car" edge="110801277#0" pos="53.25" jamThreshold="0.5" output="./output/calibrator_car_9376306390.xml" />
	<calibrator id="calib_truck_9376306390" vTypes="vtype_truck" edge="110801277#0" pos="53.25" jamThreshold="0.5" output="./output/calibrator_truck_9376306390.xml" />
	<calibrator id="calib_car_126401368" vTypes="vtype_car" edge="13703402" pos="187.78" jamThreshold="0.5" output="./output/calibrator_car_126401368.xml" />
	<calibrator id="calib_truck_126401368" vTypes="vtype_truck" edge="13703402" pos="187.78" jamThreshold="0.5" output="./output/calibrator_truck_126401368.xml" />
	<calibrator id="calib_car_26016431" vTypes="vtype_car" edge="479178724" pos="171.94" jamThreshold="0.5" output="./output/calibrator_car_26016431.xml" />
	<calibrator id="calib_truck_26016431" vTypes="vtype_truck" edge="479178724" pos="171.94" jamThreshold="0.5" output="./output/calibrator_truck_26016431.xml" />
	<calibrator id="calib_car_4444772660" vTypes="vtype_car" edge="63202744" pos="595.28" jamThreshold="0.5" output="./output/calibrator_car_4444772660.xml" />
	<calibrator id="calib_truck_4444772660" vTypes="vtype_truck" edge="63202744" pos="595.28" jamThreshold="0.5" output="./output/calibrator_truck_4444772660.xml" />
</additional>