<?xml version='1.0' encoding='UTF-8'?>
<additional>
	<calibrator id="calib_J0" edge="173072184" pos="0" output="./output/calibrator_J0.xml" />
	<calibrator id="calib_461172813-AddedOffRampNode" edge="461172813-AddedOffRampEdge" pos="0" output="./output/calibrator_461172813-AddedOffRampNode.xml" />
	<calibrator id="calib_461173094-AddedOffRampNode" edge="461173094-AddedOffRampEdge" pos="0" output="./output/calibrator_461173094-AddedOffRampNode.xml" />
	<calibrator id="calib_1838975441" edge="54375654" pos="0" output="./output/calibrator_1838975441.xml" />
</additional>