<?xml version='1.0' encoding='UTF-8'?>
<additional>
	<calibrator id="calib_12300807-AddedOffRampNode" edge="12300807-AddedOffRampEdge" pos="0" output="./output/calibrator_12300807-AddedOffRampNode.xml" />
	<calibrator id="calib_4718386259" edge="453955770" pos="0" output="./output/calibrator_4718386259.xml" />
	<calibrator id="calib_1110673417" edge="95841106" pos="0" output="./output/calibrator_1110673417.xml" />
	<calibrator id="calib_1110673655" edge="95841135" pos="0" output="./output/calibrator_1110673655.xml" />
</additional>