<?xml version='1.0' encoding='UTF-8'?>
<additional>
	<calibrator id="calib_car_J39" vTypes="vtype_car" edge="E10.25" pos="0" jamThreshold="0.5" output="./output/calibrator_car_J39.xml" />
	<calibrator id="calib_truck_J39" vTypes="vtype_truck" edge="E10.25" pos="0" jamThreshold="0.5" output="./output/calibrator_truck_J39.xml" />
	<calibrator id="calib_car_J35" vTypes="vtype_car" edge="E11" pos="0" jamThreshold="0.5" output="./output/calibrator_car_J35.xml" />
	<calibrator id="calib_truck_J35" vTypes="vtype_truck" edge="E11" pos="0" jamThreshold="0.5" output="./output/calibrator_truck_J35.xml" />
	<calibrator id="calib_car_J28" vTypes="vtype_car" edge="ES_N56_onramp1.90" pos="0" jamThreshold="0.5" output="./output/calibrator_car_J28.xml" />
	<calibrator id="calib_truck_J28" vTypes="vtype_truck" edge="ES_N56_onramp1.90" pos="0" jamThreshold="0.5" output="./output/calibrator_truck_J28.xml" />
	<calibrator id="calib_car_J40" vTypes="vtype_car" edge="E_NS6" pos="0" jamThreshold="0.5" output="./output/calibrator_car_J40.xml" />
	<calibrator id="calib_truck_J40" vTypes="vtype_truck" edge="E_NS6" pos="0" jamThreshold="0.5" output="./output/calibrator_truck_J40.xml" />
	<calibrator id="calib_car_J358" vTypes="vtype_car" edge="N_ES149" pos="0" jamThreshold="0.5" output="./output/calibrator_car_J358.xml" />
	<calibrator id="calib_truck_J358" vTypes="vtype_truck" edge="N_ES149" pos="0" jamThreshold="0.5" output="./output/calibrator_truck_J358.xml" />
	<calibrator id="calib_car_J26" vTypes="vtype_car" edge="N_ES152_onramp1.89" pos="0" jamThreshold="0.5" output="./output/calibrator_car_J26.xml" />
	<calibrator id="calib_truck_J26" vTypes="vtype_truck" edge="N_ES152_onramp1.89" pos="0" jamThreshold="0.5" output="./output/calibrator_truck_J26.xml" />
	<calibrator id="calib_car_497734" vTypes="vtype_car" edge="S_NE11" pos="0" jamThreshold="0.5" output="./output/calibrator_car_497734.xml" />
	<calibrator id="calib_truck_497734" vTypes="vtype_truck" edge="S_NE11" pos="0" jamThreshold="0.5" output="./output/calibrator_truck_497734.xml" />
</additional>