<?xml version='1.0' encoding='UTF-8'?>
<additional>
	<calibrator id="calib_674925851" edge="1030031026" pos="0" output="./output/calibrator_674925851.xml" />
	<calibrator id="calib_269351989" edge="474423812" pos="0" output="./output/calibrator_269351989.xml" />
	<calibrator id="calib_1147305760" edge="483715735" pos="0" output="./output/calibrator_1147305760.xml" />
	<calibrator id="calib_685276223" edge="95841103#1-AddedOnRampEdge" pos="0" output="./output/calibrator_685276223.xml" />
</additional>