<?xml version='1.0' encoding='UTF-8'?>
<additional>
	<calibrator id="calib_35006697-AddedOnRampNode" edge="35006697" pos="0" output="./output/calibrator_35006697-AddedOnRampNode.xml" />
	<calibrator id="calib_3713816546" edge="367461723" pos="0" output="./output/calibrator_3713816546.xml" />
	<calibrator id="calib_128583855" edge="478886779" pos="0" output="./output/calibrator_128583855.xml" />
</additional>