<?xml version='1.0' encoding='UTF-8'?>
<additional>
	<calibrator id="calib_139455413-AddedOffRampNode" edge="139455413-AddedOffRampEdge" pos="0" output="./output/calibrator_139455413-AddedOffRampNode.xml" />
	<calibrator id="calib_26735732#0-AddedOffRampNode" edge="26735732#0-AddedOffRampEdge" pos="0" output="./output/calibrator_26735732#0-AddedOffRampNode.xml" />
	<calibrator id="calib_26735829#0-AddedOffRampNode" edge="26735829#0-AddedOffRampEdge" pos="0" output="./output/calibrator_26735829#0-AddedOffRampNode.xml" />
	<calibrator id="calib_1103406350" edge="95117801" pos="0" output="./output/calibrator_1103406350.xml" />
</additional>