<?xml version='1.0' encoding='UTF-8'?>
<additional>
	<calibrator id="calib_411029260" edge="1120859257" pos="0" output="./output/calibrator_411029260.xml" />
	<calibrator id="calib_453274489-AddedOffRampNode" edge="453274489-AddedOffRampEdge" pos="0" output="./output/calibrator_453274489-AddedOffRampNode.xml" />
	<calibrator id="calib_4723326398" edge="479187304" pos="0" output="./output/calibrator_4723326398.xml" />
	<calibrator id="calib_3092784194" edge="479192142" pos="0" output="./output/calibrator_3092784194.xml" />
	<calibrator id="calib_1110673569" edge="95841131" pos="0" output="./output/calibrator_1110673569.xml" />
</additional>