<?xml version='1.0' encoding='UTF-8'?>
<additional>
	<calibrator id="calib_12543115#1-AddedOffRampNode" edge="12543115#1-AddedOffRampEdge" pos="0" output="./output/calibrator_12543115#1-AddedOffRampNode.xml" />
	<calibrator id="calib_319327526" edge="29036547" pos="0" output="./output/calibrator_319327526.xml" />
	<calibrator id="calib_787318148" edge="497150666" pos="0" output="./output/calibrator_787318148.xml" />
	<calibrator id="calib_114320432" edge="859507144#1" pos="0" output="./output/calibrator_114320432.xml" />
</additional>