<?xml version='1.0' encoding='UTF-8'?>
<additional>
	<calibrator id="calib_126581609" edge="13713923#2" pos="0" output="./output/calibrator_126581609.xml" />
	<calibrator id="calib_26016438" edge="453955769" pos="0" output="./output/calibrator_26016438.xml" />
	<calibrator id="calib_479127845-AddedOffRampNode" edge="479127845-AddedOffRampEdge" pos="0" output="./output/calibrator_479127845-AddedOffRampNode.xml" />
</additional>